@<TRIPOS>MOLECULE
generated by VMD
  700 1035    1    0    0
SMALL
NO_CHARGES
****
Energy = 0

@<TRIPOS>ATOM
      1  C          5.1623    0.4646    8.8432   CA    1  CNT        0.000000
      2  C          4.8527    1.8212    9.1112   CA    2  CNT        0.000000
      3  C          4.6699    2.2489   10.4511   CA    3  CNT        0.000000
      4  C          3.9033    3.4102   10.7191   CA    4  CNT        0.000000
      5  C          5.0999    0.9255    6.4314   CA    5  CNT        0.000000
      6  C          4.6699    2.2489    6.6994   CA    6  CNT        0.000000
      7  C          4.4495    2.6585    8.0393   CA    7  CNT        0.000000
      8  C          3.5819    3.7464    8.3073   CA    8  CNT        0.000000
      9  C          3.2317    4.0524    9.6472   CA    9  CNT        0.000000
     10  C          2.0371    4.7661    9.9151   CA   10  CNT        0.000000
     11  C          4.9964    1.3789    4.0197   CA   11  CNT        0.000000
     12  C          4.4495    2.6585    4.2876   CA   12  CNT        0.000000
     13  C          4.1933    3.0466    5.6275   CA   13  CNT        0.000000
     14  C          3.2317    4.0524    5.8955   CA   14  CNT        0.000000
     15  C          2.8554    4.3258    7.2354   CA   15  CNT        0.000000
     16  C          1.6017    4.9295    7.5034   CA   16  CNT        0.000000
     17  C          1.1534    5.0532    8.8432   CA   17  CNT        0.000000
     18  C         -0.2325    5.1780    9.1112   CA   18  CNT        0.000000
     19  C         -0.6958    5.1363   10.4511   CA   19  CNT        0.000000
     20  C         -2.0371    4.7661   10.7191   CA   20  CNT        0.000000
     21  C          5.1832    0.0000    0.0000   CA   21  CNT        0.000000
     22  C          4.9964    1.3789    0.2680   CA   22  CNT        0.000000
     23  C          4.8527    1.8212    1.6079   CA   23  CNT        0.000000
     24  C          4.1933    3.0466    1.8758   CA   24  CNT        0.000000
     25  C          3.9033    3.4102    3.2157   CA   25  CNT        0.000000
     26  C          2.8554    4.3258    3.4837   CA   26  CNT        0.000000
     27  C          2.4562    4.5643    4.8236   CA   27  CNT        0.000000
     28  C          1.1534    5.0532    5.0916   CA   28  CNT        0.000000
     29  C          0.6958    5.1363    6.4314   CA   29  CNT        0.000000
     30  C         -0.6958    5.1363    6.6994   CA   30  CNT        0.000000
     31  C         -1.1534    5.0532    8.0393   CA   31  CNT        0.000000
     32  C         -2.4562    4.5643    8.3073   CA   32  CNT        0.000000
     33  C         -2.8554    4.3258    9.6472   CA   33  CNT        0.000000
     34  C         -3.9033    3.4102    9.9151   CA   34  CNT        0.000000
     35  C          3.5819    3.7464    0.8039   CA   35  CNT        0.000000
     36  C          2.4562    4.5643    1.0719   CA   36  CNT        0.000000
     37  C          2.0371    4.7661    2.4118   CA   37  CNT        0.000000
     38  C          0.6958    5.1363    2.6798   CA   38  CNT        0.000000
     39  C          0.2325    5.1780    4.0197   CA   39  CNT        0.000000
     40  C         -1.1534    5.0532    4.2876   CA   40  CNT        0.000000
     41  C         -1.6017    4.9295    5.6275   CA   41  CNT        0.000000
     42  C         -2.8554    4.3258    5.8955   CA   42  CNT        0.000000
     43  C         -3.2317    4.0524    7.2354   CA   43  CNT        0.000000
     44  C         -4.1933    3.0466    7.5034   CA   44  CNT        0.000000
     45  C         -4.4495    2.6585    8.8432   CA   45  CNT        0.000000
     46  C         -4.9964    1.3789    9.1112   CA   46  CNT        0.000000
     47  C         -5.0999    0.9255   10.4511   CA   47  CNT        0.000000
     48  C         -5.1623   -0.4646   10.7191   CA   48  CNT        0.000000
     49  C          1.6017    4.9295    0.0000   CA   49  CNT        0.000000
     50  C          0.2325    5.1780    0.2680   CA   50  CNT        0.000000
     51  C         -0.2325    5.1780    1.6079   CA   51  CNT        0.000000
     52  C         -1.6017    4.9295    1.8758   CA   52  CNT        0.000000
     53  C         -2.0371    4.7661    3.2157   CA   53  CNT        0.000000
     54  C         -3.2317    4.0524    3.4837   CA   54  CNT        0.000000
     55  C         -3.5819    3.7464    4.8236   CA   55  CNT        0.000000
     56  C         -4.4495    2.6585    5.0916   CA   56  CNT        0.000000
     57  C         -4.6699    2.2489    6.4314   CA   57  CNT        0.000000
     58  C         -5.0999    0.9255    6.6994   CA   58  CNT        0.000000
     59  C         -5.1623    0.4646    8.0393   CA   59  CNT        0.000000
     60  C         -5.0999   -0.9255    8.3073   CA   60  CNT        0.000000
     61  C         -4.9964   -1.3789    9.6472   CA   61  CNT        0.000000
     62  C         -4.4495   -2.6585    9.9151   CA   62  CNT        0.000000
     63  C         -2.4562    4.5643    0.8039   CA   63  CNT        0.000000
     64  C         -3.5819    3.7464    1.0719   CA   64  CNT        0.000000
     65  C         -3.9033    3.4102    2.4118   CA   65  CNT        0.000000
     66  C         -4.6699    2.2489    2.6798   CA   66  CNT        0.000000
     67  C         -4.8527    1.8212    4.0197   CA   67  CNT        0.000000
     68  C         -5.1623    0.4646    4.2876   CA   68  CNT        0.000000
     69  C         -5.1832    0.0000    5.6275   CA   69  CNT        0.000000
     70  C         -4.9964   -1.3789    5.8955   CA   70  CNT        0.000000
     71  C         -4.8527   -1.8212    7.2354   CA   71  CNT        0.000000
     72  C         -4.1933   -3.0466    7.5034   CA   72  CNT        0.000000
     73  C         -3.9033   -3.4102    8.8432   CA   73  CNT        0.000000
     74  C         -2.8554   -4.3258    9.1112   CA   74  CNT        0.000000
     75  C         -2.4562   -4.5643   10.4511   CA   75  CNT        0.000000
     76  C         -1.1534   -5.0532   10.7191   CA   76  CNT        0.000000
     77  C         -4.1933    3.0466    0.0000   CA   77  CNT        0.000000
     78  C         -4.8527    1.8212    0.2680   CA   78  CNT        0.000000
     79  C         -4.9964    1.3789    1.6079   CA   79  CNT        0.000000
     80  C         -5.1832    0.0000    1.8758   CA   80  CNT        0.000000
     81  C         -5.1623   -0.4646    3.2157   CA   81  CNT        0.000000
     82  C         -4.8527   -1.8212    3.4837   CA   82  CNT        0.000000
     83  C         -4.6699   -2.2489    4.8236   CA   83  CNT        0.000000
     84  C         -3.9033   -3.4102    5.0916   CA   84  CNT        0.000000
     85  C         -3.5819   -3.7464    6.4314   CA   85  CNT        0.000000
     86  C         -2.4562   -4.5643    6.6994   CA   86  CNT        0.000000
     87  C         -2.0371   -4.7661    8.0393   CA   87  CNT        0.000000
     88  C         -0.6958   -5.1363    8.3073   CA   88  CNT        0.000000
     89  C         -0.2325   -5.1780    9.6472   CA   89  CNT        0.000000
     90  C          1.1534   -5.0532    9.9151   CA   90  CNT        0.000000
     91  C         -5.0999   -0.9255    0.8039   CA   91  CNT        0.000000
     92  C         -4.6699   -2.2489    1.0719   CA   92  CNT        0.000000
     93  C         -4.4495   -2.6585    2.4118   CA   93  CNT        0.000000
     94  C         -3.5819   -3.7464    2.6798   CA   94  CNT        0.000000
     95  C         -3.2317   -4.0524    4.0197   CA   95  CNT        0.000000
     96  C         -2.0371   -4.7661    4.2876   CA   96  CNT        0.000000
     97  C         -1.6017   -4.9295    5.6275   CA   97  CNT        0.000000
     98  C         -0.2325   -5.1780    5.8955   CA   98  CNT        0.000000
     99  C          0.2325   -5.1780    7.2354   CA   99  CNT        0.000000
    100  C          1.6017   -4.9295    7.5034   CA  100  CNT        0.000000
    101  C          2.0371   -4.7661    8.8432   CA  101  CNT        0.000000
    102  C          3.2317   -4.0524    9.1112   CA  102  CNT        0.000000
    103  C          3.5819   -3.7464   10.4511   CA  103  CNT        0.000000
    104  C          4.4495   -2.6585   10.7191   CA  104  CNT        0.000000
    105  C         -4.1933   -3.0466    0.0000   CA  105  CNT        0.000000
    106  C         -3.2317   -4.0524    0.2680   CA  106  CNT        0.000000
    107  C         -2.8554   -4.3258    1.6079   CA  107  CNT        0.000000
    108  C         -1.6017   -4.9295    1.8758   CA  108  CNT        0.000000
    109  C         -1.1534   -5.0532    3.2157   CA  109  CNT        0.000000
    110  C          0.2325   -5.1780    3.4837   CA  110  CNT        0.000000
    111  C          0.6958   -5.1363    4.8236   CA  111  CNT        0.000000
    112  C          2.0371   -4.7661    5.0916   CA  112  CNT        0.000000
    113  C          2.4562   -4.5643    6.4314   CA  113  CNT        0.000000
    114  C          3.5819   -3.7464    6.6994   CA  114  CNT        0.000000
    115  C          3.9033   -3.4102    8.0393   CA  115  CNT        0.000000
    116  C          4.6699   -2.2489    8.3073   CA  116  CNT        0.000000
    117  C          4.8527   -1.8212    9.6472   CA  117  CNT        0.000000
    118  C          5.1623   -0.4646    9.9151   CA  118  CNT        0.000000
    119  C         -0.6958   -5.1363    0.8039   CA  119  CNT        0.000000
    120  C          0.6958   -5.1363    1.0719   CA  120  CNT        0.000000
    121  C          1.1534   -5.0532    2.4118   CA  121  CNT        0.000000
    122  C          2.4562   -4.5643    2.6798   CA  122  CNT        0.000000
    123  C          2.8554   -4.3258    4.0197   CA  123  CNT        0.000000
    124  C          3.9033   -3.4102    4.2876   CA  124  CNT        0.000000
    125  C          4.1933   -3.0466    5.6275   CA  125  CNT        0.000000
    126  C          4.8527   -1.8212    5.8955   CA  126  CNT        0.000000
    127  C          4.9964   -1.3789    7.2354   CA  127  CNT        0.000000
    128  C          5.1832   -0.0000    7.5034   CA  128  CNT        0.000000
    129  C          1.6017   -4.9295    0.0000   CA  129  CNT        0.000000
    130  C          2.8554   -4.3258    0.2680   CA  130  CNT        0.000000
    131  C          3.2317   -4.0524    1.6079   CA  131  CNT        0.000000
    132  C          4.1933   -3.0466    1.8758   CA  132  CNT        0.000000
    133  C          4.4495   -2.6585    3.2157   CA  133  CNT        0.000000
    134  C          4.9964   -1.3789    3.4837   CA  134  CNT        0.000000
    135  C          5.0999   -0.9255    4.8236   CA  135  CNT        0.000000
    136  C          5.1623    0.4646    5.0916   CA  136  CNT        0.000000
    137  C          4.6699   -2.2489    0.8039   CA  137  CNT        0.000000
    138  C          5.0999   -0.9255    1.0719   CA  138  CNT        0.000000
    139  C          5.1623   -0.4646    2.4118   CA  139  CNT        0.000000
    140  C          5.0999    0.9255    2.6798   CA  140  CNT        0.000000
    141  C          5.1623    0.4646   20.0983   CA  141  CNT        0.000000
    142  C          4.8527    1.8212   20.3662   CA  142  CNT        0.000000
    143  C          4.6699    2.2489   21.7061   CA  143  CNT        0.000000
    144  C          3.9033    3.4102   21.9741   CA  144  CNT        0.000000
    145  C          5.0999    0.9255   17.6865   CA  145  CNT        0.000000
    146  C          4.6699    2.2489   17.9544   CA  146  CNT        0.000000
    147  C          4.4495    2.6585   19.2943   CA  147  CNT        0.000000
    148  C          3.5819    3.7464   19.5623   CA  148  CNT        0.000000
    149  C          3.2317    4.0524   20.9022   CA  149  CNT        0.000000
    150  C          2.0371    4.7661   21.1702   CA  150  CNT        0.000000
    151  C          4.9964    1.3789   15.2747   CA  151  CNT        0.000000
    152  C          4.4495    2.6585   15.5427   CA  152  CNT        0.000000
    153  C          4.1933    3.0466   16.8825   CA  153  CNT        0.000000
    154  C          3.2317    4.0524   17.1505   CA  154  CNT        0.000000
    155  C          2.8554    4.3258   18.4904   CA  155  CNT        0.000000
    156  C          1.6017    4.9295   18.7584   CA  156  CNT        0.000000
    157  C          1.1534    5.0532   20.0983   CA  157  CNT        0.000000
    158  C         -0.2325    5.1780   20.3662   CA  158  CNT        0.000000
    159  C         -0.6958    5.1363   21.7061   CA  159  CNT        0.000000
    160  C         -2.0371    4.7661   21.9741   CA  160  CNT        0.000000
    161  C          5.1832    0.0000   11.2550   CA  161  CNT        0.000000
    162  C          4.9964    1.3789   11.5230   CA  162  CNT        0.000000
    163  C          4.8527    1.8212   12.8629   CA  163  CNT        0.000000
    164  C          4.1933    3.0466   13.1309   CA  164  CNT        0.000000
    165  C          3.9033    3.4102   14.4707   CA  165  CNT        0.000000
    166  C          2.8554    4.3258   14.7387   CA  166  CNT        0.000000
    167  C          2.4562    4.5643   16.0786   CA  167  CNT        0.000000
    168  C          1.1534    5.0532   16.3466   CA  168  CNT        0.000000
    169  C          0.6958    5.1363   17.6865   CA  169  CNT        0.000000
    170  C         -0.6958    5.1363   17.9544   CA  170  CNT        0.000000
    171  C         -1.1534    5.0532   19.2943   CA  171  CNT        0.000000
    172  C         -2.4562    4.5643   19.5623   CA  172  CNT        0.000000
    173  C         -2.8554    4.3258   20.9022   CA  173  CNT        0.000000
    174  C         -3.9033    3.4102   21.1702   CA  174  CNT        0.000000
    175  C          3.5819    3.7464   12.0590   CA  175  CNT        0.000000
    176  C          2.4562    4.5643   12.3269   CA  176  CNT        0.000000
    177  C          2.0371    4.7661   13.6668   CA  177  CNT        0.000000
    178  C          0.6958    5.1363   13.9348   CA  178  CNT        0.000000
    179  C          0.2325    5.1780   15.2747   CA  179  CNT        0.000000
    180  C         -1.1534    5.0532   15.5427   CA  180  CNT        0.000000
    181  C         -1.6017    4.9295   16.8825   CA  181  CNT        0.000000
    182  C         -2.8554    4.3258   17.1505   CA  182  CNT        0.000000
    183  C         -3.2317    4.0524   18.4904   CA  183  CNT        0.000000
    184  C         -4.1933    3.0466   18.7584   CA  184  CNT        0.000000
    185  C         -4.4495    2.6585   20.0983   CA  185  CNT        0.000000
    186  C         -4.9964    1.3789   20.3662   CA  186  CNT        0.000000
    187  C         -5.0999    0.9255   21.7061   CA  187  CNT        0.000000
    188  C         -5.1623   -0.4646   21.9741   CA  188  CNT        0.000000
    189  C          1.6017    4.9295   11.2550   CA  189  CNT        0.000000
    190  C          0.2325    5.1780   11.5230   CA  190  CNT        0.000000
    191  C         -0.2325    5.1780   12.8629   CA  191  CNT        0.000000
    192  C         -1.6017    4.9295   13.1309   CA  192  CNT        0.000000
    193  C         -2.0371    4.7661   14.4707   CA  193  CNT        0.000000
    194  C         -3.2317    4.0524   14.7387   CA  194  CNT        0.000000
    195  C         -3.5819    3.7464   16.0786   CA  195  CNT        0.000000
    196  C         -4.4495    2.6585   16.3466   CA  196  CNT        0.000000
    197  C         -4.6699    2.2489   17.6865   CA  197  CNT        0.000000
    198  C         -5.0999    0.9255   17.9544   CA  198  CNT        0.000000
    199  C         -5.1623    0.4646   19.2943   CA  199  CNT        0.000000
    200  C         -5.0999   -0.9255   19.5623   CA  200  CNT        0.000000
    201  C         -4.9964   -1.3789   20.9022   CA  201  CNT        0.000000
    202  C         -4.4495   -2.6585   21.1702   CA  202  CNT        0.000000
    203  C         -2.4562    4.5643   12.0590   CA  203  CNT        0.000000
    204  C         -3.5819    3.7464   12.3269   CA  204  CNT        0.000000
    205  C         -3.9033    3.4102   13.6668   CA  205  CNT        0.000000
    206  C         -4.6699    2.2489   13.9348   CA  206  CNT        0.000000
    207  C         -4.8527    1.8212   15.2747   CA  207  CNT        0.000000
    208  C         -5.1623    0.4646   15.5427   CA  208  CNT        0.000000
    209  C         -5.1832    0.0000   16.8825   CA  209  CNT        0.000000
    210  C         -4.9964   -1.3789   17.1505   CA  210  CNT        0.000000
    211  C         -4.8527   -1.8212   18.4904   CA  211  CNT        0.000000
    212  C         -4.1933   -3.0466   18.7584   CA  212  CNT        0.000000
    213  C         -3.9033   -3.4102   20.0983   CA  213  CNT        0.000000
    214  C         -2.8554   -4.3258   20.3662   CA  214  CNT        0.000000
    215  C         -2.4562   -4.5643   21.7061   CA  215  CNT        0.000000
    216  C         -1.1534   -5.0532   21.9741   CA  216  CNT        0.000000
    217  C         -4.1933    3.0466   11.2550   CA  217  CNT        0.000000
    218  C         -4.8527    1.8212   11.5230   CA  218  CNT        0.000000
    219  C         -4.9964    1.3789   12.8629   CA  219  CNT        0.000000
    220  C         -5.1832    0.0000   13.1309   CA  220  CNT        0.000000
    221  C         -5.1623   -0.4646   14.4707   CA  221  CNT        0.000000
    222  C         -4.8527   -1.8212   14.7387   CA  222  CNT        0.000000
    223  C         -4.6699   -2.2489   16.0786   CA  223  CNT        0.000000
    224  C         -3.9033   -3.4102   16.3466   CA  224  CNT        0.000000
    225  C         -3.5819   -3.7464   17.6865   CA  225  CNT        0.000000
    226  C         -2.4562   -4.5643   17.9544   CA  226  CNT        0.000000
    227  C         -2.0371   -4.7661   19.2943   CA  227  CNT        0.000000
    228  C         -0.6958   -5.1363   19.5623   CA  228  CNT        0.000000
    229  C         -0.2325   -5.1780   20.9022   CA  229  CNT        0.000000
    230  C          1.1534   -5.0532   21.1702   CA  230  CNT        0.000000
    231  C         -5.0999   -0.9255   12.0590   CA  231  CNT        0.000000
    232  C         -4.6699   -2.2489   12.3269   CA  232  CNT        0.000000
    233  C         -4.4495   -2.6585   13.6668   CA  233  CNT        0.000000
    234  C         -3.5819   -3.7464   13.9348   CA  234  CNT        0.000000
    235  C         -3.2317   -4.0524   15.2747   CA  235  CNT        0.000000
    236  C         -2.0371   -4.7661   15.5427   CA  236  CNT        0.000000
    237  C         -1.6017   -4.9295   16.8825   CA  237  CNT        0.000000
    238  C         -0.2325   -5.1780   17.1505   CA  238  CNT        0.000000
    239  C          0.2325   -5.1780   18.4904   CA  239  CNT        0.000000
    240  C          1.6017   -4.9295   18.7584   CA  240  CNT        0.000000
    241  C          2.0371   -4.7661   20.0983   CA  241  CNT        0.000000
    242  C          3.2317   -4.0524   20.3662   CA  242  CNT        0.000000
    243  C          3.5819   -3.7464   21.7061   CA  243  CNT        0.000000
    244  C          4.4495   -2.6585   21.9741   CA  244  CNT        0.000000
    245  C         -4.1933   -3.0466   11.2550   CA  245  CNT        0.000000
    246  C         -3.2317   -4.0524   11.5230   CA  246  CNT        0.000000
    247  C         -2.8554   -4.3258   12.8629   CA  247  CNT        0.000000
    248  C         -1.6017   -4.9295   13.1309   CA  248  CNT        0.000000
    249  C         -1.1534   -5.0532   14.4707   CA  249  CNT        0.000000
    250  C          0.2325   -5.1780   14.7387   CA  250  CNT        0.000000
    251  C          0.6958   -5.1363   16.0786   CA  251  CNT        0.000000
    252  C          2.0371   -4.7661   16.3466   CA  252  CNT        0.000000
    253  C          2.4562   -4.5643   17.6865   CA  253  CNT        0.000000
    254  C          3.5819   -3.7464   17.9544   CA  254  CNT        0.000000
    255  C          3.9033   -3.4102   19.2943   CA  255  CNT        0.000000
    256  C          4.6699   -2.2489   19.5623   CA  256  CNT        0.000000
    257  C          4.8527   -1.8212   20.9022   CA  257  CNT        0.000000
    258  C          5.1623   -0.4646   21.1702   CA  258  CNT        0.000000
    259  C         -0.6958   -5.1363   12.0590   CA  259  CNT        0.000000
    260  C          0.6958   -5.1363   12.3269   CA  260  CNT        0.000000
    261  C          1.1534   -5.0532   13.6668   CA  261  CNT        0.000000
    262  C          2.4562   -4.5643   13.9348   CA  262  CNT        0.000000
    263  C          2.8554   -4.3258   15.2747   CA  263  CNT        0.000000
    264  C          3.9033   -3.4102   15.5427   CA  264  CNT        0.000000
    265  C          4.1933   -3.0466   16.8825   CA  265  CNT        0.000000
    266  C          4.8527   -1.8212   17.1505   CA  266  CNT        0.000000
    267  C          4.9964   -1.3789   18.4904   CA  267  CNT        0.000000
    268  C          5.1832   -0.0000   18.7584   CA  268  CNT        0.000000
    269  C          1.6017   -4.9295   11.2550   CA  269  CNT        0.000000
    270  C          2.8554   -4.3258   11.5230   CA  270  CNT        0.000000
    271  C          3.2317   -4.0524   12.8629   CA  271  CNT        0.000000
    272  C          4.1933   -3.0466   13.1309   CA  272  CNT        0.000000
    273  C          4.4495   -2.6585   14.4707   CA  273  CNT        0.000000
    274  C          4.9964   -1.3789   14.7387   CA  274  CNT        0.000000
    275  C          5.0999   -0.9255   16.0786   CA  275  CNT        0.000000
    276  C          5.1623    0.4646   16.3466   CA  276  CNT        0.000000
    277  C          4.6699   -2.2489   12.0590   CA  277  CNT        0.000000
    278  C          5.0999   -0.9255   12.3269   CA  278  CNT        0.000000
    279  C          5.1623   -0.4646   13.6668   CA  279  CNT        0.000000
    280  C          5.0999    0.9255   13.9348   CA  280  CNT        0.000000
    281  C          5.1623    0.4646   31.3533   CA  281  CNT        0.000000
    282  C          4.8527    1.8212   31.6213   CA  282  CNT        0.000000
    283  C          4.6699    2.2489   32.9611   CA  283  CNT        0.000000
    284  C          3.9033    3.4102   33.2291   CA  284  CNT        0.000000
    285  C          5.0999    0.9255   28.9415   CA  285  CNT        0.000000
    286  C          4.6699    2.2489   29.2095   CA  286  CNT        0.000000
    287  C          4.4495    2.6585   30.5494   CA  287  CNT        0.000000
    288  C          3.5819    3.7464   30.8173   CA  288  CNT        0.000000
    289  C          3.2317    4.0524   32.1572   CA  289  CNT        0.000000
    290  C          2.0371    4.7661   32.4252   CA  290  CNT        0.000000
    291  C          4.9964    1.3789   26.5297   CA  291  CNT        0.000000
    292  C          4.4495    2.6585   26.7977   CA  292  CNT        0.000000
    293  C          4.1933    3.0466   28.1376   CA  293  CNT        0.000000
    294  C          3.2317    4.0524   28.4055   CA  294  CNT        0.000000
    295  C          2.8554    4.3258   29.7454   CA  295  CNT        0.000000
    296  C          1.6017    4.9295   30.0134   CA  296  CNT        0.000000
    297  C          1.1534    5.0532   31.3533   CA  297  CNT        0.000000
    298  C         -0.2325    5.1780   31.6213   CA  298  CNT        0.000000
    299  C         -0.6958    5.1363   32.9611   CA  299  CNT        0.000000
    300  C         -2.0371    4.7661   33.2291   CA  300  CNT        0.000000
    301  C          5.1832    0.0000   22.5101   CA  301  CNT        0.000000
    302  C          4.9964    1.3789   22.7780   CA  302  CNT        0.000000
    303  C          4.8527    1.8212   24.1179   CA  303  CNT        0.000000
    304  C          4.1933    3.0466   24.3859   CA  304  CNT        0.000000
    305  C          3.9033    3.4102   25.7258   CA  305  CNT        0.000000
    306  C          2.8554    4.3258   25.9938   CA  306  CNT        0.000000
    307  C          2.4562    4.5643   27.3336   CA  307  CNT        0.000000
    308  C          1.1534    5.0532   27.6016   CA  308  CNT        0.000000
    309  C          0.6958    5.1363   28.9415   CA  309  CNT        0.000000
    310  C         -0.6958    5.1363   29.2095   CA  310  CNT        0.000000
    311  C         -1.1534    5.0532   30.5494   CA  311  CNT        0.000000
    312  C         -2.4562    4.5643   30.8173   CA  312  CNT        0.000000
    313  C         -2.8554    4.3258   32.1572   CA  313  CNT        0.000000
    314  C         -3.9033    3.4102   32.4252   CA  314  CNT        0.000000
    315  C          3.5819    3.7464   23.3140   CA  315  CNT        0.000000
    316  C          2.4562    4.5643   23.5820   CA  316  CNT        0.000000
    317  C          2.0371    4.7661   24.9218   CA  317  CNT        0.000000
    318  C          0.6958    5.1363   25.1898   CA  318  CNT        0.000000
    319  C          0.2325    5.1780   26.5297   CA  319  CNT        0.000000
    320  C         -1.1534    5.0532   26.7977   CA  320  CNT        0.000000
    321  C         -1.6017    4.9295   28.1376   CA  321  CNT        0.000000
    322  C         -2.8554    4.3258   28.4055   CA  322  CNT        0.000000
    323  C         -3.2317    4.0524   29.7454   CA  323  CNT        0.000000
    324  C         -4.1933    3.0466   30.0134   CA  324  CNT        0.000000
    325  C         -4.4495    2.6585   31.3533   CA  325  CNT        0.000000
    326  C         -4.9964    1.3789   31.6213   CA  326  CNT        0.000000
    327  C         -5.0999    0.9255   32.9611   CA  327  CNT        0.000000
    328  C         -5.1623   -0.4646   33.2291   CA  328  CNT        0.000000
    329  C          1.6017    4.9295   22.5101   CA  329  CNT        0.000000
    330  C          0.2325    5.1780   22.7780   CA  330  CNT        0.000000
    331  C         -0.2325    5.1780   24.1179   CA  331  CNT        0.000000
    332  C         -1.6017    4.9295   24.3859   CA  332  CNT        0.000000
    333  C         -2.0371    4.7661   25.7258   CA  333  CNT        0.000000
    334  C         -3.2317    4.0524   25.9938   CA  334  CNT        0.000000
    335  C         -3.5819    3.7464   27.3336   CA  335  CNT        0.000000
    336  C         -4.4495    2.6585   27.6016   CA  336  CNT        0.000000
    337  C         -4.6699    2.2489   28.9415   CA  337  CNT        0.000000
    338  C         -5.0999    0.9255   29.2095   CA  338  CNT        0.000000
    339  C         -5.1623    0.4646   30.5494   CA  339  CNT        0.000000
    340  C         -5.0999   -0.9255   30.8173   CA  340  CNT        0.000000
    341  C         -4.9964   -1.3789   32.1572   CA  341  CNT        0.000000
    342  C         -4.4495   -2.6585   32.4252   CA  342  CNT        0.000000
    343  C         -2.4562    4.5643   23.3140   CA  343  CNT        0.000000
    344  C         -3.5819    3.7464   23.5820   CA  344  CNT        0.000000
    345  C         -3.9033    3.4102   24.9218   CA  345  CNT        0.000000
    346  C         -4.6699    2.2489   25.1898   CA  346  CNT        0.000000
    347  C         -4.8527    1.8212   26.5297   CA  347  CNT        0.000000
    348  C         -5.1623    0.4646   26.7977   CA  348  CNT        0.000000
    349  C         -5.1832    0.0000   28.1376   CA  349  CNT        0.000000
    350  C         -4.9964   -1.3789   28.4055   CA  350  CNT        0.000000
    351  C         -4.8527   -1.8212   29.7454   CA  351  CNT        0.000000
    352  C         -4.1933   -3.0466   30.0134   CA  352  CNT        0.000000
    353  C         -3.9033   -3.4102   31.3533   CA  353  CNT        0.000000
    354  C         -2.8554   -4.3258   31.6213   CA  354  CNT        0.000000
    355  C         -2.4562   -4.5643   32.9611   CA  355  CNT        0.000000
    356  C         -1.1534   -5.0532   33.2291   CA  356  CNT        0.000000
    357  C         -4.1933    3.0466   22.5101   CA  357  CNT        0.000000
    358  C         -4.8527    1.8212   22.7780   CA  358  CNT        0.000000
    359  C         -4.9964    1.3789   24.1179   CA  359  CNT        0.000000
    360  C         -5.1832    0.0000   24.3859   CA  360  CNT        0.000000
    361  C         -5.1623   -0.4646   25.7258   CA  361  CNT        0.000000
    362  C         -4.8527   -1.8212   25.9938   CA  362  CNT        0.000000
    363  C         -4.6699   -2.2489   27.3336   CA  363  CNT        0.000000
    364  C         -3.9033   -3.4102   27.6016   CA  364  CNT        0.000000
    365  C         -3.5819   -3.7464   28.9415   CA  365  CNT        0.000000
    366  C         -2.4562   -4.5643   29.2095   CA  366  CNT        0.000000
    367  C         -2.0371   -4.7661   30.5494   CA  367  CNT        0.000000
    368  C         -0.6958   -5.1363   30.8173   CA  368  CNT        0.000000
    369  C         -0.2325   -5.1780   32.1572   CA  369  CNT        0.000000
    370  C          1.1534   -5.0532   32.4252   CA  370  CNT        0.000000
    371  C         -5.0999   -0.9255   23.3140   CA  371  CNT        0.000000
    372  C         -4.6699   -2.2489   23.5820   CA  372  CNT        0.000000
    373  C         -4.4495   -2.6585   24.9218   CA  373  CNT        0.000000
    374  C         -3.5819   -3.7464   25.1898   CA  374  CNT        0.000000
    375  C         -3.2317   -4.0524   26.5297   CA  375  CNT        0.000000
    376  C         -2.0371   -4.7661   26.7977   CA  376  CNT        0.000000
    377  C         -1.6017   -4.9295   28.1376   CA  377  CNT        0.000000
    378  C         -0.2325   -5.1780   28.4055   CA  378  CNT        0.000000
    379  C          0.2325   -5.1780   29.7454   CA  379  CNT        0.000000
    380  C          1.6017   -4.9295   30.0134   CA  380  CNT        0.000000
    381  C          2.0371   -4.7661   31.3533   CA  381  CNT        0.000000
    382  C          3.2317   -4.0524   31.6213   CA  382  CNT        0.000000
    383  C          3.5819   -3.7464   32.9611   CA  383  CNT        0.000000
    384  C          4.4495   -2.6585   33.2291   CA  384  CNT        0.000000
    385  C         -4.1933   -3.0466   22.5101   CA  385  CNT        0.000000
    386  C         -3.2317   -4.0524   22.7780   CA  386  CNT        0.000000
    387  C         -2.8554   -4.3258   24.1179   CA  387  CNT        0.000000
    388  C         -1.6017   -4.9295   24.3859   CA  388  CNT        0.000000
    389  C         -1.1534   -5.0532   25.7258   CA  389  CNT        0.000000
    390  C          0.2325   -5.1780   25.9938   CA  390  CNT        0.000000
    391  C          0.6958   -5.1363   27.3336   CA  391  CNT        0.000000
    392  C          2.0371   -4.7661   27.6016   CA  392  CNT        0.000000
    393  C          2.4562   -4.5643   28.9415   CA  393  CNT        0.000000
    394  C          3.5819   -3.7464   29.2095   CA  394  CNT        0.000000
    395  C          3.9033   -3.4102   30.5494   CA  395  CNT        0.000000
    396  C          4.6699   -2.2489   30.8173   CA  396  CNT        0.000000
    397  C          4.8527   -1.8212   32.1572   CA  397  CNT        0.000000
    398  C          5.1623   -0.4646   32.4252   CA  398  CNT        0.000000
    399  C         -0.6958   -5.1363   23.3140   CA  399  CNT        0.000000
    400  C          0.6958   -5.1363   23.5820   CA  400  CNT        0.000000
    401  C          1.1534   -5.0532   24.9218   CA  401  CNT        0.000000
    402  C          2.4562   -4.5643   25.1898   CA  402  CNT        0.000000
    403  C          2.8554   -4.3258   26.5297   CA  403  CNT        0.000000
    404  C          3.9033   -3.4102   26.7977   CA  404  CNT        0.000000
    405  C          4.1933   -3.0466   28.1376   CA  405  CNT        0.000000
    406  C          4.8527   -1.8212   28.4055   CA  406  CNT        0.000000
    407  C          4.9964   -1.3789   29.7454   CA  407  CNT        0.000000
    408  C          5.1832   -0.0000   30.0134   CA  408  CNT        0.000000
    409  C          1.6017   -4.9295   22.5101   CA  409  CNT        0.000000
    410  C          2.8554   -4.3258   22.7780   CA  410  CNT        0.000000
    411  C          3.2317   -4.0524   24.1179   CA  411  CNT        0.000000
    412  C          4.1933   -3.0466   24.3859   CA  412  CNT        0.000000
    413  C          4.4495   -2.6585   25.7258   CA  413  CNT        0.000000
    414  C          4.9964   -1.3789   25.9938   CA  414  CNT        0.000000
    415  C          5.0999   -0.9255   27.3336   CA  415  CNT        0.000000
    416  C          5.1623    0.4646   27.6016   CA  416  CNT        0.000000
    417  C          4.6699   -2.2489   23.3140   CA  417  CNT        0.000000
    418  C          5.0999   -0.9255   23.5820   CA  418  CNT        0.000000
    419  C          5.1623   -0.4646   24.9218   CA  419  CNT        0.000000
    420  C          5.0999    0.9255   25.1898   CA  420  CNT        0.000000
    421  C          5.1623    0.4646   42.6083   CA  421  CNT        0.000000
    422  C          4.8527    1.8212   42.8763   CA  422  CNT        0.000000
    423  C          4.6699    2.2489   44.2162   CA  423  CNT        0.000000
    424  C          3.9033    3.4102   44.4841   CA  424  CNT        0.000000
    425  C          5.0999    0.9255   40.1965   CA  425  CNT        0.000000
    426  C          4.6699    2.2489   40.4645   CA  426  CNT        0.000000
    427  C          4.4495    2.6585   41.8044   CA  427  CNT        0.000000
    428  C          3.5819    3.7464   42.0724   CA  428  CNT        0.000000
    429  C          3.2317    4.0524   43.4122   CA  429  CNT        0.000000
    430  C          2.0371    4.7661   43.6802   CA  430  CNT        0.000000
    431  C          4.9964    1.3789   37.7847   CA  431  CNT        0.000000
    432  C          4.4495    2.6585   38.0527   CA  432  CNT        0.000000
    433  C          4.1933    3.0466   39.3926   CA  433  CNT        0.000000
    434  C          3.2317    4.0524   39.6606   CA  434  CNT        0.000000
    435  C          2.8554    4.3258   41.0005   CA  435  CNT        0.000000
    436  C          1.6017    4.9295   41.2684   CA  436  CNT        0.000000
    437  C          1.1534    5.0532   42.6083   CA  437  CNT        0.000000
    438  C         -0.2325    5.1780   42.8763   CA  438  CNT        0.000000
    439  C         -0.6958    5.1363   44.2162   CA  439  CNT        0.000000
    440  C         -2.0371    4.7661   44.4841   CA  440  CNT        0.000000
    441  C          5.1832    0.0000   33.7651   CA  441  CNT        0.000000
    442  C          4.9964    1.3789   34.0331   CA  442  CNT        0.000000
    443  C          4.8527    1.8212   35.3729   CA  443  CNT        0.000000
    444  C          4.1933    3.0466   35.6409   CA  444  CNT        0.000000
    445  C          3.9033    3.4102   36.9808   CA  445  CNT        0.000000
    446  C          2.8554    4.3258   37.2488   CA  446  CNT        0.000000
    447  C          2.4562    4.5643   38.5887   CA  447  CNT        0.000000
    448  C          1.1534    5.0532   38.8566   CA  448  CNT        0.000000
    449  C          0.6958    5.1363   40.1965   CA  449  CNT        0.000000
    450  C         -0.6958    5.1363   40.4645   CA  450  CNT        0.000000
    451  C         -1.1534    5.0532   41.8044   CA  451  CNT        0.000000
    452  C         -2.4562    4.5643   42.0724   CA  452  CNT        0.000000
    453  C         -2.8554    4.3258   43.4122   CA  453  CNT        0.000000
    454  C         -3.9033    3.4102   43.6802   CA  454  CNT        0.000000
    455  C          3.5819    3.7464   34.5690   CA  455  CNT        0.000000
    456  C          2.4562    4.5643   34.8370   CA  456  CNT        0.000000
    457  C          2.0371    4.7661   36.1769   CA  457  CNT        0.000000
    458  C          0.6958    5.1363   36.4448   CA  458  CNT        0.000000
    459  C          0.2325    5.1780   37.7847   CA  459  CNT        0.000000
    460  C         -1.1534    5.0532   38.0527   CA  460  CNT        0.000000
    461  C         -1.6017    4.9295   39.3926   CA  461  CNT        0.000000
    462  C         -2.8554    4.3258   39.6606   CA  462  CNT        0.000000
    463  C         -3.2317    4.0524   41.0005   CA  463  CNT        0.000000
    464  C         -4.1933    3.0466   41.2684   CA  464  CNT        0.000000
    465  C         -4.4495    2.6585   42.6083   CA  465  CNT        0.000000
    466  C         -4.9964    1.3789   42.8763   CA  466  CNT        0.000000
    467  C         -5.0999    0.9255   44.2162   CA  467  CNT        0.000000
    468  C         -5.1623   -0.4646   44.4841   CA  468  CNT        0.000000
    469  C          1.6017    4.9295   33.7651   CA  469  CNT        0.000000
    470  C          0.2325    5.1780   34.0331   CA  470  CNT        0.000000
    471  C         -0.2325    5.1780   35.3729   CA  471  CNT        0.000000
    472  C         -1.6017    4.9295   35.6409   CA  472  CNT        0.000000
    473  C         -2.0371    4.7661   36.9808   CA  473  CNT        0.000000
    474  C         -3.2317    4.0524   37.2488   CA  474  CNT        0.000000
    475  C         -3.5819    3.7464   38.5887   CA  475  CNT        0.000000
    476  C         -4.4495    2.6585   38.8566   CA  476  CNT        0.000000
    477  C         -4.6699    2.2489   40.1965   CA  477  CNT        0.000000
    478  C         -5.0999    0.9255   40.4645   CA  478  CNT        0.000000
    479  C         -5.1623    0.4646   41.8044   CA  479  CNT        0.000000
    480  C         -5.0999   -0.9255   42.0724   CA  480  CNT        0.000000
    481  C         -4.9964   -1.3789   43.4122   CA  481  CNT        0.000000
    482  C         -4.4495   -2.6585   43.6802   CA  482  CNT        0.000000
    483  C         -2.4562    4.5643   34.5690   CA  483  CNT        0.000000
    484  C         -3.5819    3.7464   34.8370   CA  484  CNT        0.000000
    485  C         -3.9033    3.4102   36.1769   CA  485  CNT        0.000000
    486  C         -4.6699    2.2489   36.4448   CA  486  CNT        0.000000
    487  C         -4.8527    1.8212   37.7847   CA  487  CNT        0.000000
    488  C         -5.1623    0.4646   38.0527   CA  488  CNT        0.000000
    489  C         -5.1832    0.0000   39.3926   CA  489  CNT        0.000000
    490  C         -4.9964   -1.3789   39.6606   CA  490  CNT        0.000000
    491  C         -4.8527   -1.8212   41.0005   CA  491  CNT        0.000000
    492  C         -4.1933   -3.0466   41.2684   CA  492  CNT        0.000000
    493  C         -3.9033   -3.4102   42.6083   CA  493  CNT        0.000000
    494  C         -2.8554   -4.3258   42.8763   CA  494  CNT        0.000000
    495  C         -2.4562   -4.5643   44.2162   CA  495  CNT        0.000000
    496  C         -1.1534   -5.0532   44.4841   CA  496  CNT        0.000000
    497  C         -4.1933    3.0466   33.7651   CA  497  CNT        0.000000
    498  C         -4.8527    1.8212   34.0331   CA  498  CNT        0.000000
    499  C         -4.9964    1.3789   35.3729   CA  499  CNT        0.000000
    500  C         -5.1832    0.0000   35.6409   CA  500  CNT        0.000000
    501  C         -5.1623   -0.4646   36.9808   CA  501  CNT        0.000000
    502  C         -4.8527   -1.8212   37.2488   CA  502  CNT        0.000000
    503  C         -4.6699   -2.2489   38.5887   CA  503  CNT        0.000000
    504  C         -3.9033   -3.4102   38.8566   CA  504  CNT        0.000000
    505  C         -3.5819   -3.7464   40.1965   CA  505  CNT        0.000000
    506  C         -2.4562   -4.5643   40.4645   CA  506  CNT        0.000000
    507  C         -2.0371   -4.7661   41.8044   CA  507  CNT        0.000000
    508  C         -0.6958   -5.1363   42.0724   CA  508  CNT        0.000000
    509  C         -0.2325   -5.1780   43.4122   CA  509  CNT        0.000000
    510  C          1.1534   -5.0532   43.6802   CA  510  CNT        0.000000
    511  C         -5.0999   -0.9255   34.5690   CA  511  CNT        0.000000
    512  C         -4.6699   -2.2489   34.8370   CA  512  CNT        0.000000
    513  C         -4.4495   -2.6585   36.1769   CA  513  CNT        0.000000
    514  C         -3.5819   -3.7464   36.4448   CA  514  CNT        0.000000
    515  C         -3.2317   -4.0524   37.7847   CA  515  CNT        0.000000
    516  C         -2.0371   -4.7661   38.0527   CA  516  CNT        0.000000
    517  C         -1.6017   -4.9295   39.3926   CA  517  CNT        0.000000
    518  C         -0.2325   -5.1780   39.6606   CA  518  CNT        0.000000
    519  C          0.2325   -5.1780   41.0005   CA  519  CNT        0.000000
    520  C          1.6017   -4.9295   41.2684   CA  520  CNT        0.000000
    521  C          2.0371   -4.7661   42.6083   CA  521  CNT        0.000000
    522  C          3.2317   -4.0524   42.8763   CA  522  CNT        0.000000
    523  C          3.5819   -3.7464   44.2162   CA  523  CNT        0.000000
    524  C          4.4495   -2.6585   44.4841   CA  524  CNT        0.000000
    525  C         -4.1933   -3.0466   33.7651   CA  525  CNT        0.000000
    526  C         -3.2317   -4.0524   34.0331   CA  526  CNT        0.000000
    527  C         -2.8554   -4.3258   35.3729   CA  527  CNT        0.000000
    528  C         -1.6017   -4.9295   35.6409   CA  528  CNT        0.000000
    529  C         -1.1534   -5.0532   36.9808   CA  529  CNT        0.000000
    530  C          0.2325   -5.1780   37.2488   CA  530  CNT        0.000000
    531  C          0.6958   -5.1363   38.5887   CA  531  CNT        0.000000
    532  C          2.0371   -4.7661   38.8566   CA  532  CNT        0.000000
    533  C          2.4562   -4.5643   40.1965   CA  533  CNT        0.000000
    534  C          3.5819   -3.7464   40.4645   CA  534  CNT        0.000000
    535  C          3.9033   -3.4102   41.8044   CA  535  CNT        0.000000
    536  C          4.6699   -2.2489   42.0724   CA  536  CNT        0.000000
    537  C          4.8527   -1.8212   43.4122   CA  537  CNT        0.000000
    538  C          5.1623   -0.4646   43.6802   CA  538  CNT        0.000000
    539  C         -0.6958   -5.1363   34.5690   CA  539  CNT        0.000000
    540  C          0.6958   -5.1363   34.8370   CA  540  CNT        0.000000
    541  C          1.1534   -5.0532   36.1769   CA  541  CNT        0.000000
    542  C          2.4562   -4.5643   36.4448   CA  542  CNT        0.000000
    543  C          2.8554   -4.3258   37.7847   CA  543  CNT        0.000000
    544  C          3.9033   -3.4102   38.0527   CA  544  CNT        0.000000
    545  C          4.1933   -3.0466   39.3926   CA  545  CNT        0.000000
    546  C          4.8527   -1.8212   39.6606   CA  546  CNT        0.000000
    547  C          4.9964   -1.3789   41.0005   CA  547  CNT        0.000000
    548  C          5.1832   -0.0000   41.2684   CA  548  CNT        0.000000
    549  C          1.6017   -4.9295   33.7651   CA  549  CNT        0.000000
    550  C          2.8554   -4.3258   34.0331   CA  550  CNT        0.000000
    551  C          3.2317   -4.0524   35.3729   CA  551  CNT        0.000000
    552  C          4.1933   -3.0466   35.6409   CA  552  CNT        0.000000
    553  C          4.4495   -2.6585   36.9808   CA  553  CNT        0.000000
    554  C          4.9964   -1.3789   37.2488   CA  554  CNT        0.000000
    555  C          5.0999   -0.9255   38.5887   CA  555  CNT        0.000000
    556  C          5.1623    0.4646   38.8566   CA  556  CNT        0.000000
    557  C          4.6699   -2.2489   34.5690   CA  557  CNT        0.000000
    558  C          5.0999   -0.9255   34.8370   CA  558  CNT        0.000000
    559  C          5.1623   -0.4646   36.1769   CA  559  CNT        0.000000
    560  C          5.0999    0.9255   36.4448   CA  560  CNT        0.000000
    561  C          5.1623    0.4646   53.8633   CA  561  CNT        0.000000
    562  C          4.8527    1.8212   54.1313   CA  562  CNT        0.000000
    563  C          4.6699    2.2489   55.4712   CA  563  CNT        0.000000
    564  C          3.9033    3.4102   55.7392   CA  564  CNT        0.000000
    565  C          5.0999    0.9255   51.4515   CA  565  CNT        0.000000
    566  C          4.6699    2.2489   51.7195   CA  566  CNT        0.000000
    567  C          4.4495    2.6585   53.0594   CA  567  CNT        0.000000
    568  C          3.5819    3.7464   53.3274   CA  568  CNT        0.000000
    569  C          3.2317    4.0524   54.6673   CA  569  CNT        0.000000
    570  C          2.0371    4.7661   54.9352   CA  570  CNT        0.000000
    571  C          4.9964    1.3789   49.0398   CA  571  CNT        0.000000
    572  C          4.4495    2.6585   49.3077   CA  572  CNT        0.000000
    573  C          4.1933    3.0466   50.6476   CA  573  CNT        0.000000
    574  C          3.2317    4.0524   50.9156   CA  574  CNT        0.000000
    575  C          2.8554    4.3258   52.2555   CA  575  CNT        0.000000
    576  C          1.6017    4.9295   52.5235   CA  576  CNT        0.000000
    577  C          1.1534    5.0532   53.8633   CA  577  CNT        0.000000
    578  C         -0.2325    5.1780   54.1313   CA  578  CNT        0.000000
    579  C         -0.6958    5.1363   55.4712   CA  579  CNT        0.000000
    580  C         -2.0371    4.7661   55.7392   CA  580  CNT        0.000000
    581  C          5.1832    0.0000   45.0201   CA  581  CNT        0.000000
    582  C          4.9964    1.3789   45.2881   CA  582  CNT        0.000000
    583  C          4.8527    1.8212   46.6280   CA  583  CNT        0.000000
    584  C          4.1933    3.0466   46.8959   CA  584  CNT        0.000000
    585  C          3.9033    3.4102   48.2358   CA  585  CNT        0.000000
    586  C          2.8554    4.3258   48.5038   CA  586  CNT        0.000000
    587  C          2.4562    4.5643   49.8437   CA  587  CNT        0.000000
    588  C          1.1534    5.0532   50.1117   CA  588  CNT        0.000000
    589  C          0.6958    5.1363   51.4515   CA  589  CNT        0.000000
    590  C         -0.6958    5.1363   51.7195   CA  590  CNT        0.000000
    591  C         -1.1534    5.0532   53.0594   CA  591  CNT        0.000000
    592  C         -2.4562    4.5643   53.3274   CA  592  CNT        0.000000
    593  C         -2.8554    4.3258   54.6673   CA  593  CNT        0.000000
    594  C         -3.9033    3.4102   54.9352   CA  594  CNT        0.000000
    595  C          3.5819    3.7464   45.8240   CA  595  CNT        0.000000
    596  C          2.4562    4.5643   46.0920   CA  596  CNT        0.000000
    597  C          2.0371    4.7661   47.4319   CA  597  CNT        0.000000
    598  C          0.6958    5.1363   47.6999   CA  598  CNT        0.000000
    599  C          0.2325    5.1780   49.0398   CA  599  CNT        0.000000
    600  C         -1.1534    5.0532   49.3077   CA  600  CNT        0.000000
    601  C         -1.6017    4.9295   50.6476   CA  601  CNT        0.000000
    602  C         -2.8554    4.3258   50.9156   CA  602  CNT        0.000000
    603  C         -3.2317    4.0524   52.2555   CA  603  CNT        0.000000
    604  C         -4.1933    3.0466   52.5235   CA  604  CNT        0.000000
    605  C         -4.4495    2.6585   53.8633   CA  605  CNT        0.000000
    606  C         -4.9964    1.3789   54.1313   CA  606  CNT        0.000000
    607  C         -5.0999    0.9255   55.4712   CA  607  CNT        0.000000
    608  C         -5.1623   -0.4646   55.7392   CA  608  CNT        0.000000
    609  C          1.6017    4.9295   45.0201   CA  609  CNT        0.000000
    610  C          0.2325    5.1780   45.2881   CA  610  CNT        0.000000
    611  C         -0.2325    5.1780   46.6280   CA  611  CNT        0.000000
    612  C         -1.6017    4.9295   46.8959   CA  612  CNT        0.000000
    613  C         -2.0371    4.7661   48.2358   CA  613  CNT        0.000000
    614  C         -3.2317    4.0524   48.5038   CA  614  CNT        0.000000
    615  C         -3.5819    3.7464   49.8437   CA  615  CNT        0.000000
    616  C         -4.4495    2.6585   50.1117   CA  616  CNT        0.000000
    617  C         -4.6699    2.2489   51.4515   CA  617  CNT        0.000000
    618  C         -5.0999    0.9255   51.7195   CA  618  CNT        0.000000
    619  C         -5.1623    0.4646   53.0594   CA  619  CNT        0.000000
    620  C         -5.0999   -0.9255   53.3274   CA  620  CNT        0.000000
    621  C         -4.9964   -1.3789   54.6673   CA  621  CNT        0.000000
    622  C         -4.4495   -2.6585   54.9352   CA  622  CNT        0.000000
    623  C         -2.4562    4.5643   45.8240   CA  623  CNT        0.000000
    624  C         -3.5819    3.7464   46.0920   CA  624  CNT        0.000000
    625  C         -3.9033    3.4102   47.4319   CA  625  CNT        0.000000
    626  C         -4.6699    2.2489   47.6999   CA  626  CNT        0.000000
    627  C         -4.8527    1.8212   49.0398   CA  627  CNT        0.000000
    628  C         -5.1623    0.4646   49.3077   CA  628  CNT        0.000000
    629  C         -5.1832    0.0000   50.6476   CA  629  CNT        0.000000
    630  C         -4.9964   -1.3789   50.9156   CA  630  CNT        0.000000
    631  C         -4.8527   -1.8212   52.2555   CA  631  CNT        0.000000
    632  C         -4.1933   -3.0466   52.5235   CA  632  CNT        0.000000
    633  C         -3.9033   -3.4102   53.8633   CA  633  CNT        0.000000
    634  C         -2.8554   -4.3258   54.1313   CA  634  CNT        0.000000
    635  C         -2.4562   -4.5643   55.4712   CA  635  CNT        0.000000
    636  C         -1.1534   -5.0532   55.7392   CA  636  CNT        0.000000
    637  C         -4.1933    3.0466   45.0201   CA  637  CNT        0.000000
    638  C         -4.8527    1.8212   45.2881   CA  638  CNT        0.000000
    639  C         -4.9964    1.3789   46.6280   CA  639  CNT        0.000000
    640  C         -5.1832    0.0000   46.8959   CA  640  CNT        0.000000
    641  C         -5.1623   -0.4646   48.2358   CA  641  CNT        0.000000
    642  C         -4.8527   -1.8212   48.5038   CA  642  CNT        0.000000
    643  C         -4.6699   -2.2489   49.8437   CA  643  CNT        0.000000
    644  C         -3.9033   -3.4102   50.1117   CA  644  CNT        0.000000
    645  C         -3.5819   -3.7464   51.4515   CA  645  CNT        0.000000
    646  C         -2.4562   -4.5643   51.7195   CA  646  CNT        0.000000
    647  C         -2.0371   -4.7661   53.0594   CA  647  CNT        0.000000
    648  C         -0.6958   -5.1363   53.3274   CA  648  CNT        0.000000
    649  C         -0.2325   -5.1780   54.6673   CA  649  CNT        0.000000
    650  C          1.1534   -5.0532   54.9352   CA  650  CNT        0.000000
    651  C         -5.0999   -0.9255   45.8240   CA  651  CNT        0.000000
    652  C         -4.6699   -2.2489   46.0920   CA  652  CNT        0.000000
    653  C         -4.4495   -2.6585   47.4319   CA  653  CNT        0.000000
    654  C         -3.5819   -3.7464   47.6999   CA  654  CNT        0.000000
    655  C         -3.2317   -4.0524   49.0398   CA  655  CNT        0.000000
    656  C         -2.0371   -4.7661   49.3077   CA  656  CNT        0.000000
    657  C         -1.6017   -4.9295   50.6476   CA  657  CNT        0.000000
    658  C         -0.2325   -5.1780   50.9156   CA  658  CNT        0.000000
    659  C          0.2325   -5.1780   52.2555   CA  659  CNT        0.000000
    660  C          1.6017   -4.9295   52.5235   CA  660  CNT        0.000000
    661  C          2.0371   -4.7661   53.8633   CA  661  CNT        0.000000
    662  C          3.2317   -4.0524   54.1313   CA  662  CNT        0.000000
    663  C          3.5819   -3.7464   55.4712   CA  663  CNT        0.000000
    664  C          4.4495   -2.6585   55.7392   CA  664  CNT        0.000000
    665  C         -4.1933   -3.0466   45.0201   CA  665  CNT        0.000000
    666  C         -3.2317   -4.0524   45.2881   CA  666  CNT        0.000000
    667  C         -2.8554   -4.3258   46.6280   CA  667  CNT        0.000000
    668  C         -1.6017   -4.9295   46.8959   CA  668  CNT        0.000000
    669  C         -1.1534   -5.0532   48.2358   CA  669  CNT        0.000000
    670  C          0.2325   -5.1780   48.5038   CA  670  CNT        0.000000
    671  C          0.6958   -5.1363   49.8437   CA  671  CNT        0.000000
    672  C          2.0371   -4.7661   50.1117   CA  672  CNT        0.000000
    673  C          2.4562   -4.5643   51.4515   CA  673  CNT        0.000000
    674  C          3.5819   -3.7464   51.7195   CA  674  CNT        0.000000
    675  C          3.9033   -3.4102   53.0594   CA  675  CNT        0.000000
    676  C          4.6699   -2.2489   53.3274   CA  676  CNT        0.000000
    677  C          4.8527   -1.8212   54.6673   CA  677  CNT        0.000000
    678  C          5.1623   -0.4646   54.9352   CA  678  CNT        0.000000
    679  C         -0.6958   -5.1363   45.8240   CA  679  CNT        0.000000
    680  C          0.6958   -5.1363   46.0920   CA  680  CNT        0.000000
    681  C          1.1534   -5.0532   47.4319   CA  681  CNT        0.000000
    682  C          2.4562   -4.5643   47.6999   CA  682  CNT        0.000000
    683  C          2.8554   -4.3258   49.0398   CA  683  CNT        0.000000
    684  C          3.9033   -3.4102   49.3077   CA  684  CNT        0.000000
    685  C          4.1933   -3.0466   50.6476   CA  685  CNT        0.000000
    686  C          4.8527   -1.8212   50.9156   CA  686  CNT        0.000000
    687  C          4.9964   -1.3789   52.2555   CA  687  CNT        0.000000
    688  C          5.1832   -0.0000   52.5235   CA  688  CNT        0.000000
    689  C          1.6017   -4.9295   45.0201   CA  689  CNT        0.000000
    690  C          2.8554   -4.3258   45.2881   CA  690  CNT        0.000000
    691  C          3.2317   -4.0524   46.6280   CA  691  CNT        0.000000
    692  C          4.1933   -3.0466   46.8959   CA  692  CNT        0.000000
    693  C          4.4495   -2.6585   48.2358   CA  693  CNT        0.000000
    694  C          4.9964   -1.3789   48.5038   CA  694  CNT        0.000000
    695  C          5.0999   -0.9255   49.8437   CA  695  CNT        0.000000
    696  C          5.1623    0.4646   50.1117   CA  696  CNT        0.000000
    697  C          4.6699   -2.2489   45.8240   CA  697  CNT        0.000000
    698  C          5.0999   -0.9255   46.0920   CA  698  CNT        0.000000
    699  C          5.1623   -0.4646   47.4319   CA  699  CNT        0.000000
    700  C          5.0999    0.9255   47.6999   CA  700  CNT        0.000000
@<TRIPOS>BOND
    1     1   128  1
    2     1     2  1
    3     1   118  1
    4     2     3  1
    5     2     7  1
    6     3   162  1
    7     3     4  1
    8     4     9  1
    9     4   175  1
   10     5   128  1
   11     5   136  1
   12     5     6  1
   13     6    13  1
   14     6     7  1
   15     7     8  1
   16     8     9  1
   17     8    15  1
   18     9    10  1
   19    10    17  1
   20    10   189  1
   21    11    12  1
   22    11   140  1
   23    11   136  1
   24    12    13  1
   25    12    25  1
   26    13    14  1
   27    14    15  1
   28    14    27  1
   29    15    16  1
   30    16    29  1
   31    16    17  1
   32    17    18  1
   33    18    31  1
   34    18    19  1
   35    19    20  1
   36    19   190  1
   37    20   203  1
   38    20    33  1
   39    21    22  1
   40    21   138  1
   41    22    23  1
   42    23    24  1
   43    23   140  1
   44    24    35  1
   45    24    25  1
   46    25    26  1
   47    26    37  1
   48    26    27  1
   49    27    28  1
   50    28    29  1
   51    28    39  1
   52    29    30  1
   53    30    31  1
   54    30    41  1
   55    31    32  1
   56    32    33  1
   57    32    43  1
   58    33    34  1
   59    34   217  1
   60    34    45  1
   61    35    36  1
   62    36    49  1
   63    36    37  1
   64    37    38  1
   65    38    39  1
   66    38    51  1
   67    39    40  1
   68    40    53  1
   69    40    41  1
   70    41    42  1
   71    42    43  1
   72    42    55  1
   73    43    44  1
   74    44    57  1
   75    44    45  1
   76    45    46  1
   77    46    59  1
   78    46    47  1
   79    47    48  1
   80    47   218  1
   81    48    61  1
   82    48   231  1
   83    49    50  1
   84    50    51  1
   85    51    52  1
   86    52    63  1
   87    52    53  1
   88    53    54  1
   89    54    65  1
   90    54    55  1
   91    55    56  1
   92    56    57  1
   93    56    67  1
   94    57    58  1
   95    58    59  1
   96    58    69  1
   97    59    60  1
   98    60    61  1
   99    60    71  1
  100    61    62  1
  101    62   245  1
  102    62    73  1
  103    63    64  1
  104    64    77  1
  105    64    65  1
  106    65    66  1
  107    66    67  1
  108    66    79  1
  109    67    68  1
  110    68    69  1
  111    68    81  1
  112    69    70  1
  113    70    83  1
  114    70    71  1
  115    71    72  1
  116    72    85  1
  117    72    73  1
  118    73    74  1
  119    74    87  1
  120    74    75  1
  121    75    76  1
  122    75   246  1
  123    76   259  1
  124    76    89  1
  125    77    78  1
  126    78    79  1
  127    79    80  1
  128    80    91  1
  129    80    81  1
  130    81    82  1
  131    82    93  1
  132    82    83  1
  133    83    84  1
  134    84    85  1
  135    84    95  1
  136    85    86  1
  137    86    87  1
  138    86    97  1
  139    87    88  1
  140    88    99  1
  141    88    89  1
  142    89    90  1
  143    90   101  1
  144    90   269  1
  145    91    92  1
  146    92   105  1
  147    92    93  1
  148    93    94  1
  149    94    95  1
  150    94   107  1
  151    95    96  1
  152    96    97  1
  153    96   109  1
  154    97    98  1
  155    98   111  1
  156    98    99  1
  157    99   100  1
  158   100   113  1
  159   100   101  1
  160   101   102  1
  161   102   103  1
  162   102   115  1
  163   103   104  1
  164   103   270  1
  165   104   277  1
  166   104   117  1
  167   105   106  1
  168   106   107  1
  169   107   108  1
  170   108   119  1
  171   108   109  1
  172   109   110  1
  173   110   121  1
  174   110   111  1
  175   111   112  1
  176   112   113  1
  177   112   123  1
  178   113   114  1
  179   114   125  1
  180   114   115  1
  181   115   116  1
  182   116   117  1
  183   116   127  1
  184   117   118  1
  185   118   161  1
  186   119   120  1
  187   120   129  1
  188   120   121  1
  189   121   122  1
  190   122   123  1
  191   122   131  1
  192   123   124  1
  193   124   133  1
  194   124   125  1
  195   125   126  1
  196   126   127  1
  197   126   135  1
  198   127   128  1
  199   129   130  1
  200   130   131  1
  201   131   132  1
  202   132   137  1
  203   132   133  1
  204   133   134  1
  205   134   139  1
  206   134   135  1
  207   135   136  1
  208   137   138  1
  209   138   139  1
  210   139   140  1
  211   141   142  1
  212   141   268  1
  213   141   258  1
  214   142   147  1
  215   142   143  1
  216   143   144  1
  217   143   302  1
  218   144   149  1
  219   144   315  1
  220   145   146  1
  221   145   276  1
  222   145   268  1
  223   146   153  1
  224   146   147  1
  225   147   148  1
  226   148   155  1
  227   148   149  1
  228   149   150  1
  229   150   157  1
  230   150   329  1
  231   151   280  1
  232   151   152  1
  233   151   276  1
  234   152   165  1
  235   152   153  1
  236   153   154  1
  237   154   155  1
  238   154   167  1
  239   155   156  1
  240   156   157  1
  241   156   169  1
  242   157   158  1
  243   158   159  1
  244   158   171  1
  245   159   330  1
  246   159   160  1
  247   160   173  1
  248   160   343  1
  249   161   162  1
  250   161   278  1
  251   162   163  1
  252   163   164  1
  253   163   280  1
  254   164   165  1
  255   164   175  1
  256   165   166  1
  257   166   167  1
  258   166   177  1
  259   167   168  1
  260   168   179  1
  261   168   169  1
  262   169   170  1
  263   170   181  1
  264   170   171  1
  265   171   172  1
  266   172   173  1
  267   172   183  1
  268   173   174  1
  269   174   185  1
  270   174   357  1
  271   175   176  1
  272   176   189  1
  273   176   177  1
  274   177   178  1
  275   178   191  1
  276   178   179  1
  277   179   180  1
  278   180   181  1
  279   180   193  1
  280   181   182  1
  281   182   183  1
  282   182   195  1
  283   183   184  1
  284   184   185  1
  285   184   197  1
  286   185   186  1
  287   186   187  1
  288   186   199  1
  289   187   188  1
  290   187   358  1
  291   188   201  1
  292   188   371  1
  293   189   190  1
  294   190   191  1
  295   191   192  1
  296   192   203  1
  297   192   193  1
  298   193   194  1
  299   194   195  1
  300   194   205  1
  301   195   196  1
  302   196   207  1
  303   196   197  1
  304   197   198  1
  305   198   209  1
  306   198   199  1
  307   199   200  1
  308   200   211  1
  309   200   201  1
  310   201   202  1
  311   202   385  1
  312   202   213  1
  313   203   204  1
  314   204   217  1
  315   204   205  1
  316   205   206  1
  317   206   219  1
  318   206   207  1
  319   207   208  1
  320   208   221  1
  321   208   209  1
  322   209   210  1
  323   210   211  1
  324   210   223  1
  325   211   212  1
  326   212   213  1
  327   212   225  1
  328   213   214  1
  329   214   227  1
  330   214   215  1
  331   215   216  1
  332   215   386  1
  333   216   229  1
  334   216   399  1
  335   217   218  1
  336   218   219  1
  337   219   220  1
  338   220   221  1
  339   220   231  1
  340   221   222  1
  341   222   233  1
  342   222   223  1
  343   223   224  1
  344   224   235  1
  345   224   225  1
  346   225   226  1
  347   226   237  1
  348   226   227  1
  349   227   228  1
  350   228   239  1
  351   228   229  1
  352   229   230  1
  353   230   409  1
  354   230   241  1
  355   231   232  1
  356   232   233  1
  357   232   245  1
  358   233   234  1
  359   234   247  1
  360   234   235  1
  361   235   236  1
  362   236   249  1
  363   236   237  1
  364   237   238  1
  365   238   251  1
  366   238   239  1
  367   239   240  1
  368   240   241  1
  369   240   253  1
  370   241   242  1
  371   242   255  1
  372   242   243  1
  373   243   244  1
  374   243   410  1
  375   244   257  1
  376   244   417  1
  377   245   246  1
  378   246   247  1
  379   247   248  1
  380   248   249  1
  381   248   259  1
  382   249   250  1
  383   250   251  1
  384   250   261  1
  385   251   252  1
  386   252   263  1
  387   252   253  1
  388   253   254  1
  389   254   265  1
  390   254   255  1
  391   255   256  1
  392   256   267  1
  393   256   257  1
  394   257   258  1
  395   258   301  1
  396   259   260  1
  397   260   261  1
  398   260   269  1
  399   261   262  1
  400   262   271  1
  401   262   263  1
  402   263   264  1
  403   264   273  1
  404   264   265  1
  405   265   266  1
  406   266   275  1
  407   266   267  1
  408   267   268  1
  409   269   270  1
  410   270   271  1
  411   271   272  1
  412   272   277  1
  413   272   273  1
  414   273   274  1
  415   274   279  1
  416   274   275  1
  417   275   276  1
  418   277   278  1
  419   278   279  1
  420   279   280  1
  421   281   398  1
  422   281   408  1
  423   281   282  1
  424   282   287  1
  425   282   283  1
  426   283   442  1
  427   283   284  1
  428   284   455  1
  429   284   289  1
  430   285   286  1
  431   285   408  1
  432   285   416  1
  433   286   287  1
  434   286   293  1
  435   287   288  1
  436   288   289  1
  437   288   295  1
  438   289   290  1
  439   290   297  1
  440   290   469  1
  441   291   292  1
  442   291   420  1
  443   291   416  1
  444   292   305  1
  445   292   293  1
  446   293   294  1
  447   294   307  1
  448   294   295  1
  449   295   296  1
  450   296   309  1
  451   296   297  1
  452   297   298  1
  453   298   299  1
  454   298   311  1
  455   299   300  1
  456   299   470  1
  457   300   483  1
  458   300   313  1
  459   301   418  1
  460   301   302  1
  461   302   303  1
  462   303   304  1
  463   303   420  1
  464   304   315  1
  465   304   305  1
  466   305   306  1
  467   306   317  1
  468   306   307  1
  469   307   308  1
  470   308   309  1
  471   308   319  1
  472   309   310  1
  473   310   321  1
  474   310   311  1
  475   311   312  1
  476   312   313  1
  477   312   323  1
  478   313   314  1
  479   314   325  1
  480   314   497  1
  481   315   316  1
  482   316   329  1
  483   316   317  1
  484   317   318  1
  485   318   331  1
  486   318   319  1
  487   319   320  1
  488   320   321  1
  489   320   333  1
  490   321   322  1
  491   322   323  1
  492   322   335  1
  493   323   324  1
  494   324   337  1
  495   324   325  1
  496   325   326  1
  497   326   327  1
  498   326   339  1
  499   327   328  1
  500   327   498  1
  501   328   511  1
  502   328   341  1
  503   329   330  1
  504   330   331  1
  505   331   332  1
  506   332   343  1
  507   332   333  1
  508   333   334  1
  509   334   345  1
  510   334   335  1
  511   335   336  1
  512   336   337  1
  513   336   347  1
  514   337   338  1
  515   338   339  1
  516   338   349  1
  517   339   340  1
  518   340   351  1
  519   340   341  1
  520   341   342  1
  521   342   353  1
  522   342   525  1
  523   343   344  1
  524   344   357  1
  525   344   345  1
  526   345   346  1
  527   346   359  1
  528   346   347  1
  529   347   348  1
  530   348   361  1
  531   348   349  1
  532   349   350  1
  533   350   363  1
  534   350   351  1
  535   351   352  1
  536   352   353  1
  537   352   365  1
  538   353   354  1
  539   354   355  1
  540   354   367  1
  541   355   356  1
  542   355   526  1
  543   356   369  1
  544   356   539  1
  545   357   358  1
  546   358   359  1
  547   359   360  1
  548   360   371  1
  549   360   361  1
  550   361   362  1
  551   362   373  1
  552   362   363  1
  553   363   364  1
  554   364   365  1
  555   364   375  1
  556   365   366  1
  557   366   367  1
  558   366   377  1
  559   367   368  1
  560   368   369  1
  561   368   379  1
  562   369   370  1
  563   370   381  1
  564   370   549  1
  565   371   372  1
  566   372   385  1
  567   372   373  1
  568   373   374  1
  569   374   387  1
  570   374   375  1
  571   375   376  1
  572   376   377  1
  573   376   389  1
  574   377   378  1
  575   378   391  1
  576   378   379  1
  577   379   380  1
  578   380   393  1
  579   380   381  1
  580   381   382  1
  581   382   395  1
  582   382   383  1
  583   383   384  1
  584   383   550  1
  585   384   557  1
  586   384   397  1
  587   385   386  1
  588   386   387  1
  589   387   388  1
  590   388   399  1
  591   388   389  1
  592   389   390  1
  593   390   401  1
  594   390   391  1
  595   391   392  1
  596   392   393  1
  597   392   403  1
  598   393   394  1
  599   394   405  1
  600   394   395  1
  601   395   396  1
  602   396   397  1
  603   396   407  1
  604   397   398  1
  605   398   441  1
  606   399   400  1
  607   400   409  1
  608   400   401  1
  609   401   402  1
  610   402   403  1
  611   402   411  1
  612   403   404  1
  613   404   413  1
  614   404   405  1
  615   405   406  1
  616   406   407  1
  617   406   415  1
  618   407   408  1
  619   409   410  1
  620   410   411  1
  621   411   412  1
  622   412   417  1
  623   412   413  1
  624   413   414  1
  625   414   419  1
  626   414   415  1
  627   415   416  1
  628   417   418  1
  629   418   419  1
  630   419   420  1
  631   421   422  1
  632   421   548  1
  633   421   538  1
  634   422   427  1
  635   422   423  1
  636   423   424  1
  637   423   582  1
  638   424   429  1
  639   424   595  1
  640   425   556  1
  641   425   548  1
  642   425   426  1
  643   426   433  1
  644   426   427  1
  645   427   428  1
  646   428   429  1
  647   428   435  1
  648   429   430  1
  649   430   609  1
  650   430   437  1
  651   431   432  1
  652   431   556  1
  653   431   560  1
  654   432   445  1
  655   432   433  1
  656   433   434  1
  657   434   435  1
  658   434   447  1
  659   435   436  1
  660   436   449  1
  661   436   437  1
  662   437   438  1
  663   438   451  1
  664   438   439  1
  665   439   440  1
  666   439   610  1
  667   440   453  1
  668   440   623  1
  669   441   442  1
  670   441   558  1
  671   442   443  1
  672   443   444  1
  673   443   560  1
  674   444   455  1
  675   444   445  1
  676   445   446  1
  677   446   457  1
  678   446   447  1
  679   447   448  1
  680   448   449  1
  681   448   459  1
  682   449   450  1
  683   450   451  1
  684   450   461  1
  685   451   452  1
  686   452   453  1
  687   452   463  1
  688   453   454  1
  689   454   637  1
  690   454   465  1
  691   455   456  1
  692   456   457  1
  693   456   469  1
  694   457   458  1
  695   458   471  1
  696   458   459  1
  697   459   460  1
  698   460   461  1
  699   460   473  1
  700   461   462  1
  701   462   463  1
  702   462   475  1
  703   463   464  1
  704   464   477  1
  705   464   465  1
  706   465   466  1
  707   466   479  1
  708   466   467  1
  709   467   468  1
  710   467   638  1
  711   468   481  1
  712   468   651  1
  713   469   470  1
  714   470   471  1
  715   471   472  1
  716   472   473  1
  717   472   483  1
  718   473   474  1
  719   474   485  1
  720   474   475  1
  721   475   476  1
  722   476   477  1
  723   476   487  1
  724   477   478  1
  725   478   489  1
  726   478   479  1
  727   479   480  1
  728   480   481  1
  729   480   491  1
  730   481   482  1
  731   482   665  1
  732   482   493  1
  733   483   484  1
  734   484   485  1
  735   484   497  1
  736   485   486  1
  737   486   499  1
  738   486   487  1
  739   487   488  1
  740   488   501  1
  741   488   489  1
  742   489   490  1
  743   490   503  1
  744   490   491  1
  745   491   492  1
  746   492   505  1
  747   492   493  1
  748   493   494  1
  749   494   507  1
  750   494   495  1
  751   495   496  1
  752   495   666  1
  753   496   509  1
  754   496   679  1
  755   497   498  1
  756   498   499  1
  757   499   500  1
  758   500   511  1
  759   500   501  1
  760   501   502  1
  761   502   503  1
  762   502   513  1
  763   503   504  1
  764   504   505  1
  765   504   515  1
  766   505   506  1
  767   506   517  1
  768   506   507  1
  769   507   508  1
  770   508   519  1
  771   508   509  1
  772   509   510  1
  773   510   689  1
  774   510   521  1
  775   511   512  1
  776   512   513  1
  777   512   525  1
  778   513   514  1
  779   514   527  1
  780   514   515  1
  781   515   516  1
  782   516   529  1
  783   516   517  1
  784   517   518  1
  785   518   519  1
  786   518   531  1
  787   519   520  1
  788   520   533  1
  789   520   521  1
  790   521   522  1
  791   522   535  1
  792   522   523  1
  793   523   524  1
  794   523   690  1
  795   524   537  1
  796   524   697  1
  797   525   526  1
  798   526   527  1
  799   527   528  1
  800   528   529  1
  801   528   539  1
  802   529   530  1
  803   530   531  1
  804   530   541  1
  805   531   532  1
  806   532   533  1
  807   532   543  1
  808   533   534  1
  809   534   545  1
  810   534   535  1
  811   535   536  1
  812   536   547  1
  813   536   537  1
  814   537   538  1
  815   538   581  1
  816   539   540  1
  817   540   541  1
  818   540   549  1
  819   541   542  1
  820   542   551  1
  821   542   543  1
  822   543   544  1
  823   544   553  1
  824   544   545  1
  825   545   546  1
  826   546   555  1
  827   546   547  1
  828   547   548  1
  829   549   550  1
  830   550   551  1
  831   551   552  1
  832   552   553  1
  833   552   557  1
  834   553   554  1
  835   554   559  1
  836   554   555  1
  837   555   556  1
  838   557   558  1
  839   558   559  1
  840   559   560  1
  841   561   562  1
  842   561   678  1
  843   561   688  1
  844   562   563  1
  845   562   567  1
  846   563   564  1
  847   564   569  1
  848   565   566  1
  849   565   688  1
  850   565   696  1
  851   566   573  1
  852   566   567  1
  853   567   568  1
  854   568   575  1
  855   568   569  1
  856   569   570  1
  857   570   577  1
  858   571   700  1
  859   571   572  1
  860   571   696  1
  861   572   585  1
  862   572   573  1
  863   573   574  1
  864   574   575  1
  865   574   587  1
  866   575   576  1
  867   576   577  1
  868   576   589  1
  869   577   578  1
  870   578   579  1
  871   578   591  1
  872   579   580  1
  873   580   593  1
  874   581   582  1
  875   581   698  1
  876   582   583  1
  877   583   584  1
  878   583   700  1
  879   584   595  1
  880   584   585  1
  881   585   586  1
  882   586   597  1
  883   586   587  1
  884   587   588  1
  885   588   589  1
  886   588   599  1
  887   589   590  1
  888   590   601  1
  889   590   591  1
  890   591   592  1
  891   592   603  1
  892   592   593  1
  893   593   594  1
  894   594   605  1
  895   595   596  1
  896   596   609  1
  897   596   597  1
  898   597   598  1
  899   598   599  1
  900   598   611  1
  901   599   600  1
  902   600   601  1
  903   600   613  1
  904   601   602  1
  905   602   603  1
  906   602   615  1
  907   603   604  1
  908   604   605  1
  909   604   617  1
  910   605   606  1
  911   606   607  1
  912   606   619  1
  913   607   608  1
  914   608   621  1
  915   609   610  1
  916   610   611  1
  917   611   612  1
  918   612   623  1
  919   612   613  1
  920   613   614  1
  921   614   625  1
  922   614   615  1
  923   615   616  1
  924   616   627  1
  925   616   617  1
  926   617   618  1
  927   618   629  1
  928   618   619  1
  929   619   620  1
  930   620   621  1
  931   620   631  1
  932   621   622  1
  933   622   633  1
  934   623   624  1
  935   624   637  1
  936   624   625  1
  937   625   626  1
  938   626   627  1
  939   626   639  1
  940   627   628  1
  941   628   629  1
  942   628   641  1
  943   629   630  1
  944   630   643  1
  945   630   631  1
  946   631   632  1
  947   632   633  1
  948   632   645  1
  949   633   634  1
  950   634   635  1
  951   634   647  1
  952   635   636  1
  953   636   649  1
  954   637   638  1
  955   638   639  1
  956   639   640  1
  957   640   651  1
  958   640   641  1
  959   641   642  1
  960   642   653  1
  961   642   643  1
  962   643   644  1
  963   644   655  1
  964   644   645  1
  965   645   646  1
  966   646   647  1
  967   646   657  1
  968   647   648  1
  969   648   649  1
  970   648   659  1
  971   649   650  1
  972   650   661  1
  973   651   652  1
  974   652   665  1
  975   652   653  1
  976   653   654  1
  977   654   655  1
  978   654   667  1
  979   655   656  1
  980   656   669  1
  981   656   657  1
  982   657   658  1
  983   658   671  1
  984   658   659  1
  985   659   660  1
  986   660   673  1
  987   660   661  1
  988   661   662  1
  989   662   663  1
  990   662   675  1
  991   663   664  1
  992   664   677  1
  993   665   666  1
  994   666   667  1
  995   667   668  1
  996   668   679  1
  997   668   669  1
  998   669   670  1
  999   670   681  1
 1000   670   671  1
 1001   671   672  1
 1002   672   683  1
 1003   672   673  1
 1004   673   674  1
 1005   674   685  1
 1006   674   675  1
 1007   675   676  1
 1008   676   687  1
 1009   676   677  1
 1010   677   678  1
 1011   679   680  1
 1012   680   689  1
 1013   680   681  1
 1014   681   682  1
 1015   682   683  1
 1016   682   691  1
 1017   683   684  1
 1018   684   693  1
 1019   684   685  1
 1020   685   686  1
 1021   686   687  1
 1022   686   695  1
 1023   687   688  1
 1024   689   690  1
 1025   690   691  1
 1026   691   692  1
 1027   692   697  1
 1028   692   693  1
 1029   693   694  1
 1030   694   699  1
 1031   694   695  1
 1032   695   696  1
 1033   697   698  1
 1034   698   699  1
 1035   699   700  1

@<TRIPOS>SUBSTRUCTURE
1 ****        1 TEMP                        0 ****  **** 0 ROOT
