@<TRIPOS>MOLECULE
generated by VMD
 4032 5868    1    0    0
SMALL
NO_CHARGES
****
Energy = 0

@<TRIPOS>ATOM
      1  C          0.0000    0.0000    0.0000   CA    1  GRA        0.000000
      2  C         -1.2280    0.7090    0.0000   CA    2  GRA        0.000000
      3  C         -1.2280    2.1270    0.0000   CA    3  GRA        0.000000
      4  C          0.0000    2.8360    0.0000   CA    4  GRA        0.000000
      5  C          2.4560    0.0000    0.0000   CA    5  GRA        0.000000
      6  C          1.2280    0.7090    0.0000   CA    6  GRA        0.000000
      7  C          1.2280    2.1270    0.0000   CA    7  GRA        0.000000
      8  C          2.4560    2.8360    0.0000   CA    8  GRA        0.000000
      9  C          4.9121    0.0000    0.0000   CA    9  GRA        0.000000
     10  C          3.6841    0.7090    0.0000   CA   10  GRA        0.000000
     11  C          3.6841    2.1270    0.0000   CA   11  GRA        0.000000
     12  C          4.9121    2.8360    0.0000   CA   12  GRA        0.000000
     13  C          7.3681    0.0000    0.0000   CA   13  GRA        0.000000
     14  C          6.1401    0.7090    0.0000   CA   14  GRA        0.000000
     15  C          6.1401    2.1270    0.0000   CA   15  GRA        0.000000
     16  C          7.3681    2.8360    0.0000   CA   16  GRA        0.000000
     17  C          9.8242    0.0000    0.0000   CA   17  GRA        0.000000
     18  C          8.5962    0.7090    0.0000   CA   18  GRA        0.000000
     19  C          8.5962    2.1270    0.0000   CA   19  GRA        0.000000
     20  C          9.8242    2.8360    0.0000   CA   20  GRA        0.000000
     21  C         12.2802    0.0000    0.0000   CA   21  GRA        0.000000
     22  C         11.0522    0.7090    0.0000   CA   22  GRA        0.000000
     23  C         11.0522    2.1270    0.0000   CA   23  GRA        0.000000
     24  C         12.2802    2.8360    0.0000   CA   24  GRA        0.000000
     25  C         14.7363    0.0000    0.0000   CA   25  GRA        0.000000
     26  C         13.5083    0.7090    0.0000   CA   26  GRA        0.000000
     27  C         13.5083    2.1270    0.0000   CA   27  GRA        0.000000
     28  C         14.7363    2.8360    0.0000   CA   28  GRA        0.000000
     29  C         17.1923    0.0000    0.0000   CA   29  GRA        0.000000
     30  C         15.9643    0.7090    0.0000   CA   30  GRA        0.000000
     31  C         15.9643    2.1270    0.0000   CA   31  GRA        0.000000
     32  C         17.1923    2.8360    0.0000   CA   32  GRA        0.000000
     33  C         19.6484    0.0000    0.0000   CA   33  GRA        0.000000
     34  C         18.4204    0.7090    0.0000   CA   34  GRA        0.000000
     35  C         18.4204    2.1270    0.0000   CA   35  GRA        0.000000
     36  C         19.6484    2.8360    0.0000   CA   36  GRA        0.000000
     37  C         22.1044    0.0000    0.0000   CA   37  GRA        0.000000
     38  C         20.8764    0.7090    0.0000   CA   38  GRA        0.000000
     39  C         20.8764    2.1270    0.0000   CA   39  GRA        0.000000
     40  C         22.1044    2.8360    0.0000   CA   40  GRA        0.000000
     41  C         24.5605    0.0000    0.0000   CA   41  GRA        0.000000
     42  C         23.3325    0.7090    0.0000   CA   42  GRA        0.000000
     43  C         23.3325    2.1270    0.0000   CA   43  GRA        0.000000
     44  C         24.5605    2.8360    0.0000   CA   44  GRA        0.000000
     45  C         27.0165    0.0000    0.0000   CA   45  GRA        0.000000
     46  C         25.7885    0.7090    0.0000   CA   46  GRA        0.000000
     47  C         25.7885    2.1270    0.0000   CA   47  GRA        0.000000
     48  C         27.0165    2.8360    0.0000   CA   48  GRA        0.000000
     49  C         29.4726    0.0000    0.0000   CA   49  GRA        0.000000
     50  C         28.2446    0.7090    0.0000   CA   50  GRA        0.000000
     51  C         28.2446    2.1270    0.0000   CA   51  GRA        0.000000
     52  C         29.4726    2.8360    0.0000   CA   52  GRA        0.000000
     53  C         31.9286    0.0000    0.0000   CA   53  GRA        0.000000
     54  C         30.7006    0.7090    0.0000   CA   54  GRA        0.000000
     55  C         30.7006    2.1270    0.0000   CA   55  GRA        0.000000
     56  C         31.9286    2.8360    0.0000   CA   56  GRA        0.000000
     57  C         34.3847    0.0000    0.0000   CA   57  GRA        0.000000
     58  C         33.1566    0.7090    0.0000   CA   58  GRA        0.000000
     59  C         33.1566    2.1270    0.0000   CA   59  GRA        0.000000
     60  C         34.3847    2.8360    0.0000   CA   60  GRA        0.000000
     61  C         36.8407    0.0000    0.0000   CA   61  GRA        0.000000
     62  C         35.6127    0.7090    0.0000   CA   62  GRA        0.000000
     63  C         35.6127    2.1270    0.0000   CA   63  GRA        0.000000
     64  C         36.8407    2.8360    0.0000   CA   64  GRA        0.000000
     65  C         39.2968    0.0000    0.0000   CA   65  GRA        0.000000
     66  C         38.0687    0.7090    0.0000   CA   66  GRA        0.000000
     67  C         38.0687    2.1270    0.0000   CA   67  GRA        0.000000
     68  C         39.2968    2.8360    0.0000   CA   68  GRA        0.000000
     69  C         41.7528    0.0000    0.0000   CA   69  GRA        0.000000
     70  C         40.5248    0.7090    0.0000   CA   70  GRA        0.000000
     71  C         40.5248    2.1270    0.0000   CA   71  GRA        0.000000
     72  C         41.7528    2.8360    0.0000   CA   72  GRA        0.000000
     73  C         44.2089    0.0000    0.0000   CA   73  GRA        0.000000
     74  C         42.9808    0.7090    0.0000   CA   74  GRA        0.000000
     75  C         42.9808    2.1270    0.0000   CA   75  GRA        0.000000
     76  C         44.2089    2.8360    0.0000   CA   76  GRA        0.000000
     77  C         46.6649    0.0000    0.0000   CA   77  GRA        0.000000
     78  C         45.4369    0.7090    0.0000   CA   78  GRA        0.000000
     79  C         45.4369    2.1270    0.0000   CA   79  GRA        0.000000
     80  C         46.6649    2.8360    0.0000   CA   80  GRA        0.000000
     81  C         49.1210    0.0000    0.0000   CA   81  GRA        0.000000
     82  C         47.8929    0.7090    0.0000   CA   82  GRA        0.000000
     83  C         47.8929    2.1270    0.0000   CA   83  GRA        0.000000
     84  C         49.1210    2.8360    0.0000   CA   84  GRA        0.000000
     85  C          0.0000    4.2540    0.0000   CA   85  GRA        0.000000
     86  C         -1.2280    4.9630    0.0000   CA   86  GRA        0.000000
     87  C         -1.2280    6.3810    0.0000   CA   87  GRA        0.000000
     88  C          0.0000    7.0900    0.0000   CA   88  GRA        0.000000
     89  C          2.4560    4.2540    0.0000   CA   89  GRA        0.000000
     90  C          1.2280    4.9630    0.0000   CA   90  GRA        0.000000
     91  C          1.2280    6.3810    0.0000   CA   91  GRA        0.000000
     92  C          2.4560    7.0900    0.0000   CA   92  GRA        0.000000
     93  C          4.9121    4.2540    0.0000   CA   93  GRA        0.000000
     94  C          3.6841    4.9630    0.0000   CA   94  GRA        0.000000
     95  C          3.6841    6.3810    0.0000   CA   95  GRA        0.000000
     96  C          4.9121    7.0900    0.0000   CA   96  GRA        0.000000
     97  C          7.3681    4.2540    0.0000   CA   97  GRA        0.000000
     98  C          6.1401    4.9630    0.0000   CA   98  GRA        0.000000
     99  C          6.1401    6.3810    0.0000   CA   99  GRA        0.000000
    100  C          7.3681    7.0900    0.0000   CA  100  GRA        0.000000
    101  C          9.8242    4.2540    0.0000   CA  101  GRA        0.000000
    102  C          8.5962    4.9630    0.0000   CA  102  GRA        0.000000
    103  C          8.5962    6.3810    0.0000   CA  103  GRA        0.000000
    104  C          9.8242    7.0900    0.0000   CA  104  GRA        0.000000
    105  C         12.2802    4.2540    0.0000   CA  105  GRA        0.000000
    106  C         11.0522    4.9630    0.0000   CA  106  GRA        0.000000
    107  C         11.0522    6.3810    0.0000   CA  107  GRA        0.000000
    108  C         12.2802    7.0900    0.0000   CA  108  GRA        0.000000
    109  C         14.7363    4.2540    0.0000   CA  109  GRA        0.000000
    110  C         13.5083    4.9630    0.0000   CA  110  GRA        0.000000
    111  C         13.5083    6.3810    0.0000   CA  111  GRA        0.000000
    112  C         14.7363    7.0900    0.0000   CA  112  GRA        0.000000
    113  C         17.1923    4.2540    0.0000   CA  113  GRA        0.000000
    114  C         15.9643    4.9630    0.0000   CA  114  GRA        0.000000
    115  C         15.9643    6.3810    0.0000   CA  115  GRA        0.000000
    116  C         17.1923    7.0900    0.0000   CA  116  GRA        0.000000
    117  C         19.6484    4.2540    0.0000   CA  117  GRA        0.000000
    118  C         18.4204    4.9630    0.0000   CA  118  GRA        0.000000
    119  C         18.4204    6.3810    0.0000   CA  119  GRA        0.000000
    120  C         19.6484    7.0900    0.0000   CA  120  GRA        0.000000
    121  C         22.1044    4.2540    0.0000   CA  121  GRA        0.000000
    122  C         20.8764    4.9630    0.0000   CA  122  GRA        0.000000
    123  C         20.8764    6.3810    0.0000   CA  123  GRA        0.000000
    124  C         22.1044    7.0900    0.0000   CA  124  GRA        0.000000
    125  C         24.5605    4.2540    0.0000   CA  125  GRA        0.000000
    126  C         23.3325    4.9630    0.0000   CA  126  GRA        0.000000
    127  C         23.3325    6.3810    0.0000   CA  127  GRA        0.000000
    128  C         24.5605    7.0900    0.0000   CA  128  GRA        0.000000
    129  C         27.0165    4.2540    0.0000   CA  129  GRA        0.000000
    130  C         25.7885    4.9630    0.0000   CA  130  GRA        0.000000
    131  C         25.7885    6.3810    0.0000   CA  131  GRA        0.000000
    132  C         27.0165    7.0900    0.0000   CA  132  GRA        0.000000
    133  C         29.4726    4.2540    0.0000   CA  133  GRA        0.000000
    134  C         28.2446    4.9630    0.0000   CA  134  GRA        0.000000
    135  C         28.2446    6.3810    0.0000   CA  135  GRA        0.000000
    136  C         29.4726    7.0900    0.0000   CA  136  GRA        0.000000
    137  C         31.9286    4.2540    0.0000   CA  137  GRA        0.000000
    138  C         30.7006    4.9630    0.0000   CA  138  GRA        0.000000
    139  C         30.7006    6.3810    0.0000   CA  139  GRA        0.000000
    140  C         31.9286    7.0900    0.0000   CA  140  GRA        0.000000
    141  C         34.3847    4.2540    0.0000   CA  141  GRA        0.000000
    142  C         33.1566    4.9630    0.0000   CA  142  GRA        0.000000
    143  C         33.1566    6.3810    0.0000   CA  143  GRA        0.000000
    144  C         34.3847    7.0900    0.0000   CA  144  GRA        0.000000
    145  C         36.8407    4.2540    0.0000   CA  145  GRA        0.000000
    146  C         35.6127    4.9630    0.0000   CA  146  GRA        0.000000
    147  C         35.6127    6.3810    0.0000   CA  147  GRA        0.000000
    148  C         36.8407    7.0900    0.0000   CA  148  GRA        0.000000
    149  C         39.2968    4.2540    0.0000   CA  149  GRA        0.000000
    150  C         38.0687    4.9630    0.0000   CA  150  GRA        0.000000
    151  C         38.0687    6.3810    0.0000   CA  151  GRA        0.000000
    152  C         39.2968    7.0900    0.0000   CA  152  GRA        0.000000
    153  C         41.7528    4.2540    0.0000   CA  153  GRA        0.000000
    154  C         40.5248    4.9630    0.0000   CA  154  GRA        0.000000
    155  C         40.5248    6.3810    0.0000   CA  155  GRA        0.000000
    156  C         41.7528    7.0900    0.0000   CA  156  GRA        0.000000
    157  C         44.2089    4.2540    0.0000   CA  157  GRA        0.000000
    158  C         42.9808    4.9630    0.0000   CA  158  GRA        0.000000
    159  C         42.9808    6.3810    0.0000   CA  159  GRA        0.000000
    160  C         44.2089    7.0900    0.0000   CA  160  GRA        0.000000
    161  C         46.6649    4.2540    0.0000   CA  161  GRA        0.000000
    162  C         45.4369    4.9630    0.0000   CA  162  GRA        0.000000
    163  C         45.4369    6.3810    0.0000   CA  163  GRA        0.000000
    164  C         46.6649    7.0900    0.0000   CA  164  GRA        0.000000
    165  C         49.1210    4.2540    0.0000   CA  165  GRA        0.000000
    166  C         47.8929    4.9630    0.0000   CA  166  GRA        0.000000
    167  C         47.8929    6.3810    0.0000   CA  167  GRA        0.000000
    168  C         49.1210    7.0900    0.0000   CA  168  GRA        0.000000
    169  C          0.0000    8.5080    0.0000   CA  169  GRA        0.000000
    170  C         -1.2280    9.2170    0.0000   CA  170  GRA        0.000000
    171  C         -1.2280   10.6350    0.0000   CA  171  GRA        0.000000
    172  C          0.0000   11.3440    0.0000   CA  172  GRA        0.000000
    173  C          2.4560    8.5080    0.0000   CA  173  GRA        0.000000
    174  C          1.2280    9.2170    0.0000   CA  174  GRA        0.000000
    175  C          1.2280   10.6350    0.0000   CA  175  GRA        0.000000
    176  C          2.4560   11.3440    0.0000   CA  176  GRA        0.000000
    177  C          4.9121    8.5080    0.0000   CA  177  GRA        0.000000
    178  C          3.6841    9.2170    0.0000   CA  178  GRA        0.000000
    179  C          3.6841   10.6350    0.0000   CA  179  GRA        0.000000
    180  C          4.9121   11.3440    0.0000   CA  180  GRA        0.000000
    181  C          7.3681    8.5080    0.0000   CA  181  GRA        0.000000
    182  C          6.1401    9.2170    0.0000   CA  182  GRA        0.000000
    183  C          6.1401   10.6350    0.0000   CA  183  GRA        0.000000
    184  C          7.3681   11.3440    0.0000   CA  184  GRA        0.000000
    185  C          9.8242    8.5080    0.0000   CA  185  GRA        0.000000
    186  C          8.5962    9.2170    0.0000   CA  186  GRA        0.000000
    187  C          8.5962   10.6350    0.0000   CA  187  GRA        0.000000
    188  C          9.8242   11.3440    0.0000   CA  188  GRA        0.000000
    189  C         12.2802    8.5080    0.0000   CA  189  GRA        0.000000
    190  C         11.0522    9.2170    0.0000   CA  190  GRA        0.000000
    191  C         11.0522   10.6350    0.0000   CA  191  GRA        0.000000
    192  C         12.2802   11.3440    0.0000   CA  192  GRA        0.000000
    193  C         14.7363    8.5080    0.0000   CA  193  GRA        0.000000
    194  C         13.5083    9.2170    0.0000   CA  194  GRA        0.000000
    195  C         13.5083   10.6350    0.0000   CA  195  GRA        0.000000
    196  C         14.7363   11.3440    0.0000   CA  196  GRA        0.000000
    197  C         17.1923    8.5080    0.0000   CA  197  GRA        0.000000
    198  C         15.9643    9.2170    0.0000   CA  198  GRA        0.000000
    199  C         15.9643   10.6350    0.0000   CA  199  GRA        0.000000
    200  C         17.1923   11.3440    0.0000   CA  200  GRA        0.000000
    201  C         19.6484    8.5080    0.0000   CA  201  GRA        0.000000
    202  C         18.4204    9.2170    0.0000   CA  202  GRA        0.000000
    203  C         18.4204   10.6350    0.0000   CA  203  GRA        0.000000
    204  C         19.6484   11.3440    0.0000   CA  204  GRA        0.000000
    205  C         22.1044    8.5080    0.0000   CA  205  GRA        0.000000
    206  C         20.8764    9.2170    0.0000   CA  206  GRA        0.000000
    207  C         20.8764   10.6350    0.0000   CA  207  GRA        0.000000
    208  C         22.1044   11.3440    0.0000   CA  208  GRA        0.000000
    209  C         24.5605    8.5080    0.0000   CA  209  GRA        0.000000
    210  C         23.3325    9.2170    0.0000   CA  210  GRA        0.000000
    211  C         23.3325   10.6350    0.0000   CA  211  GRA        0.000000
    212  C         24.5605   11.3440    0.0000   CA  212  GRA        0.000000
    213  C         27.0165    8.5080    0.0000   CA  213  GRA        0.000000
    214  C         25.7885    9.2170    0.0000   CA  214  GRA        0.000000
    215  C         25.7885   10.6350    0.0000   CA  215  GRA        0.000000
    216  C         27.0165   11.3440    0.0000   CA  216  GRA        0.000000
    217  C         29.4726    8.5080    0.0000   CA  217  GRA        0.000000
    218  C         28.2446    9.2170    0.0000   CA  218  GRA        0.000000
    219  C         28.2446   10.6350    0.0000   CA  219  GRA        0.000000
    220  C         29.4726   11.3440    0.0000   CA  220  GRA        0.000000
    221  C         31.9286    8.5080    0.0000   CA  221  GRA        0.000000
    222  C         30.7006    9.2170    0.0000   CA  222  GRA        0.000000
    223  C         30.7006   10.6350    0.0000   CA  223  GRA        0.000000
    224  C         31.9286   11.3440    0.0000   CA  224  GRA        0.000000
    225  C         34.3847    8.5080    0.0000   CA  225  GRA        0.000000
    226  C         33.1566    9.2170    0.0000   CA  226  GRA        0.000000
    227  C         33.1566   10.6350    0.0000   CA  227  GRA        0.000000
    228  C         34.3847   11.3440    0.0000   CA  228  GRA        0.000000
    229  C         36.8407    8.5080    0.0000   CA  229  GRA        0.000000
    230  C         35.6127    9.2170    0.0000   CA  230  GRA        0.000000
    231  C         35.6127   10.6350    0.0000   CA  231  GRA        0.000000
    232  C         36.8407   11.3440    0.0000   CA  232  GRA        0.000000
    233  C         39.2968    8.5080    0.0000   CA  233  GRA        0.000000
    234  C         38.0687    9.2170    0.0000   CA  234  GRA        0.000000
    235  C         38.0687   10.6350    0.0000   CA  235  GRA        0.000000
    236  C         39.2968   11.3440    0.0000   CA  236  GRA        0.000000
    237  C         41.7528    8.5080    0.0000   CA  237  GRA        0.000000
    238  C         40.5248    9.2170    0.0000   CA  238  GRA        0.000000
    239  C         40.5248   10.6350    0.0000   CA  239  GRA        0.000000
    240  C         41.7528   11.3440    0.0000   CA  240  GRA        0.000000
    241  C         44.2089    8.5080    0.0000   CA  241  GRA        0.000000
    242  C         42.9808    9.2170    0.0000   CA  242  GRA        0.000000
    243  C         42.9808   10.6350    0.0000   CA  243  GRA        0.000000
    244  C         44.2089   11.3440    0.0000   CA  244  GRA        0.000000
    245  C         46.6649    8.5080    0.0000   CA  245  GRA        0.000000
    246  C         45.4369    9.2170    0.0000   CA  246  GRA        0.000000
    247  C         45.4369   10.6350    0.0000   CA  247  GRA        0.000000
    248  C         46.6649   11.3440    0.0000   CA  248  GRA        0.000000
    249  C         49.1210    8.5080    0.0000   CA  249  GRA        0.000000
    250  C         47.8929    9.2170    0.0000   CA  250  GRA        0.000000
    251  C         47.8929   10.6350    0.0000   CA  251  GRA        0.000000
    252  C         49.1210   11.3440    0.0000   CA  252  GRA        0.000000
    253  C          0.0000   12.7620    0.0000   CA  253  GRA        0.000000
    254  C         -1.2280   13.4710    0.0000   CA  254  GRA        0.000000
    255  C         -1.2280   14.8890    0.0000   CA  255  GRA        0.000000
    256  C          0.0000   15.5980    0.0000   CA  256  GRA        0.000000
    257  C          2.4560   12.7620    0.0000   CA  257  GRA        0.000000
    258  C          1.2280   13.4710    0.0000   CA  258  GRA        0.000000
    259  C          1.2280   14.8890    0.0000   CA  259  GRA        0.000000
    260  C          2.4560   15.5980    0.0000   CA  260  GRA        0.000000
    261  C          4.9121   12.7620    0.0000   CA  261  GRA        0.000000
    262  C          3.6841   13.4710    0.0000   CA  262  GRA        0.000000
    263  C          3.6841   14.8890    0.0000   CA  263  GRA        0.000000
    264  C          4.9121   15.5980    0.0000   CA  264  GRA        0.000000
    265  C          7.3681   12.7620    0.0000   CA  265  GRA        0.000000
    266  C          6.1401   13.4710    0.0000   CA  266  GRA        0.000000
    267  C          6.1401   14.8890    0.0000   CA  267  GRA        0.000000
    268  C          7.3681   15.5980    0.0000   CA  268  GRA        0.000000
    269  C          9.8242   12.7620    0.0000   CA  269  GRA        0.000000
    270  C          8.5962   13.4710    0.0000   CA  270  GRA        0.000000
    271  C          8.5962   14.8890    0.0000   CA  271  GRA        0.000000
    272  C          9.8242   15.5980    0.0000   CA  272  GRA        0.000000
    273  C         12.2802   12.7620    0.0000   CA  273  GRA        0.000000
    274  C         11.0522   13.4710    0.0000   CA  274  GRA        0.000000
    275  C         11.0522   14.8890    0.0000   CA  275  GRA        0.000000
    276  C         12.2802   15.5980    0.0000   CA  276  GRA        0.000000
    277  C         14.7363   12.7620    0.0000   CA  277  GRA        0.000000
    278  C         13.5083   13.4710    0.0000   CA  278  GRA        0.000000
    279  C         13.5083   14.8890    0.0000   CA  279  GRA        0.000000
    280  C         14.7363   15.5980    0.0000   CA  280  GRA        0.000000
    281  C         17.1923   12.7620    0.0000   CA  281  GRA        0.000000
    282  C         15.9643   13.4710    0.0000   CA  282  GRA        0.000000
    283  C         15.9643   14.8890    0.0000   CA  283  GRA        0.000000
    284  C         17.1923   15.5980    0.0000   CA  284  GRA        0.000000
    285  C         19.6484   12.7620    0.0000   CA  285  GRA        0.000000
    286  C         18.4204   13.4710    0.0000   CA  286  GRA        0.000000
    287  C         18.4204   14.8890    0.0000   CA  287  GRA        0.000000
    288  C         19.6484   15.5980    0.0000   CA  288  GRA        0.000000
    289  C         22.1044   12.7620    0.0000   CA  289  GRA        0.000000
    290  C         20.8764   13.4710    0.0000   CA  290  GRA        0.000000
    291  C         20.8764   14.8890    0.0000   CA  291  GRA        0.000000
    292  C         22.1044   15.5980    0.0000   CA  292  GRA        0.000000
    293  C         24.5605   12.7620    0.0000   CA  293  GRA        0.000000
    294  C         23.3325   13.4710    0.0000   CA  294  GRA        0.000000
    295  C         23.3325   14.8890    0.0000   CA  295  GRA        0.000000
    296  C         24.5605   15.5980    0.0000   CA  296  GRA        0.000000
    297  C         27.0165   12.7620    0.0000   CA  297  GRA        0.000000
    298  C         25.7885   13.4710    0.0000   CA  298  GRA        0.000000
    299  C         25.7885   14.8890    0.0000   CA  299  GRA        0.000000
    300  C         27.0165   15.5980    0.0000   CA  300  GRA        0.000000
    301  C         29.4726   12.7620    0.0000   CA  301  GRA        0.000000
    302  C         28.2446   13.4710    0.0000   CA  302  GRA        0.000000
    303  C         28.2446   14.8890    0.0000   CA  303  GRA        0.000000
    304  C         29.4726   15.5980    0.0000   CA  304  GRA        0.000000
    305  C         31.9286   12.7620    0.0000   CA  305  GRA        0.000000
    306  C         30.7006   13.4710    0.0000   CA  306  GRA        0.000000
    307  C         30.7006   14.8890    0.0000   CA  307  GRA        0.000000
    308  C         31.9286   15.5980    0.0000   CA  308  GRA        0.000000
    309  C         34.3847   12.7620    0.0000   CA  309  GRA        0.000000
    310  C         33.1566   13.4710    0.0000   CA  310  GRA        0.000000
    311  C         33.1566   14.8890    0.0000   CA  311  GRA        0.000000
    312  C         34.3847   15.5980    0.0000   CA  312  GRA        0.000000
    313  C         36.8407   12.7620    0.0000   CA  313  GRA        0.000000
    314  C         35.6127   13.4710    0.0000   CA  314  GRA        0.000000
    315  C         35.6127   14.8890    0.0000   CA  315  GRA        0.000000
    316  C         36.8407   15.5980    0.0000   CA  316  GRA        0.000000
    317  C         39.2968   12.7620    0.0000   CA  317  GRA        0.000000
    318  C         38.0687   13.4710    0.0000   CA  318  GRA        0.000000
    319  C         38.0687   14.8890    0.0000   CA  319  GRA        0.000000
    320  C         39.2968   15.5980    0.0000   CA  320  GRA        0.000000
    321  C         41.7528   12.7620    0.0000   CA  321  GRA        0.000000
    322  C         40.5248   13.4710    0.0000   CA  322  GRA        0.000000
    323  C         40.5248   14.8890    0.0000   CA  323  GRA        0.000000
    324  C         41.7528   15.5980    0.0000   CA  324  GRA        0.000000
    325  C         44.2089   12.7620    0.0000   CA  325  GRA        0.000000
    326  C         42.9808   13.4710    0.0000   CA  326  GRA        0.000000
    327  C         42.9808   14.8890    0.0000   CA  327  GRA        0.000000
    328  C         44.2089   15.5980    0.0000   CA  328  GRA        0.000000
    329  C         46.6649   12.7620    0.0000   CA  329  GRA        0.000000
    330  C         45.4369   13.4710    0.0000   CA  330  GRA        0.000000
    331  C         45.4369   14.8890    0.0000   CA  331  GRA        0.000000
    332  C         46.6649   15.5980    0.0000   CA  332  GRA        0.000000
    333  C         49.1210   12.7620    0.0000   CA  333  GRA        0.000000
    334  C         47.8929   13.4710    0.0000   CA  334  GRA        0.000000
    335  C         47.8929   14.8890    0.0000   CA  335  GRA        0.000000
    336  C         49.1210   15.5980    0.0000   CA  336  GRA        0.000000
    337  C          0.0000   17.0160    0.0000   CA  337  GRA        0.000000
    338  C         -1.2280   17.7250    0.0000   CA  338  GRA        0.000000
    339  C         -1.2280   19.1430    0.0000   CA  339  GRA        0.000000
    340  C          0.0000   19.8520    0.0000   CA  340  GRA        0.000000
    341  C          2.4560   17.0160    0.0000   CA  341  GRA        0.000000
    342  C          1.2280   17.7250    0.0000   CA  342  GRA        0.000000
    343  C          1.2280   19.1430    0.0000   CA  343  GRA        0.000000
    344  C          2.4560   19.8520    0.0000   CA  344  GRA        0.000000
    345  C          4.9121   17.0160    0.0000   CA  345  GRA        0.000000
    346  C          3.6841   17.7250    0.0000   CA  346  GRA        0.000000
    347  C          3.6841   19.1430    0.0000   CA  347  GRA        0.000000
    348  C          4.9121   19.8520    0.0000   CA  348  GRA        0.000000
    349  C          7.3681   17.0160    0.0000   CA  349  GRA        0.000000
    350  C          6.1401   17.7250    0.0000   CA  350  GRA        0.000000
    351  C          6.1401   19.1430    0.0000   CA  351  GRA        0.000000
    352  C          7.3681   19.8520    0.0000   CA  352  GRA        0.000000
    353  C          9.8242   17.0160    0.0000   CA  353  GRA        0.000000
    354  C          8.5962   17.7250    0.0000   CA  354  GRA        0.000000
    355  C          8.5962   19.1430    0.0000   CA  355  GRA        0.000000
    356  C          9.8242   19.8520    0.0000   CA  356  GRA        0.000000
    357  C         12.2802   17.0160    0.0000   CA  357  GRA        0.000000
    358  C         11.0522   17.7250    0.0000   CA  358  GRA        0.000000
    359  C         11.0522   19.1430    0.0000   CA  359  GRA        0.000000
    360  C         12.2802   19.8520    0.0000   CA  360  GRA        0.000000
    361  C         14.7363   17.0160    0.0000   CA  361  GRA        0.000000
    362  C         13.5083   17.7250    0.0000   CA  362  GRA        0.000000
    363  C         13.5083   19.1430    0.0000   CA  363  GRA        0.000000
    364  C         14.7363   19.8520    0.0000   CA  364  GRA        0.000000
    365  C         17.1923   17.0160    0.0000   CA  365  GRA        0.000000
    366  C         15.9643   17.7250    0.0000   CA  366  GRA        0.000000
    367  C         15.9643   19.1430    0.0000   CA  367  GRA        0.000000
    368  C         17.1923   19.8520    0.0000   CA  368  GRA        0.000000
    369  C         19.6484   17.0160    0.0000   CA  369  GRA        0.000000
    370  C         18.4204   17.7250    0.0000   CA  370  GRA        0.000000
    371  C         18.4204   19.1430    0.0000   CA  371  GRA        0.000000
    372  C         19.6484   19.8520    0.0000   CA  372  GRA        0.000000
    373  C         22.1044   17.0160    0.0000   CA  373  GRA        0.000000
    374  C         20.8764   17.7250    0.0000   CA  374  GRA        0.000000
    375  C         20.8764   19.1430    0.0000   CA  375  GRA        0.000000
    376  C         22.1044   19.8520    0.0000   CA  376  GRA        0.000000
    377  C         24.5605   17.0160    0.0000   CA  377  GRA        0.000000
    378  C         23.3325   17.7250    0.0000   CA  378  GRA        0.000000
    379  C         23.3325   19.1430    0.0000   CA  379  GRA        0.000000
    380  C         24.5605   19.8520    0.0000   CA  380  GRA        0.000000
    381  C         27.0165   17.0160    0.0000   CA  381  GRA        0.000000
    382  C         25.7885   17.7250    0.0000   CA  382  GRA        0.000000
    383  C         25.7885   19.1430    0.0000   CA  383  GRA        0.000000
    384  C         27.0165   19.8520    0.0000   CA  384  GRA        0.000000
    385  C         29.4726   17.0160    0.0000   CA  385  GRA        0.000000
    386  C         28.2446   17.7250    0.0000   CA  386  GRA        0.000000
    387  C         28.2446   19.1430    0.0000   CA  387  GRA        0.000000
    388  C         29.4726   19.8520    0.0000   CA  388  GRA        0.000000
    389  C         31.9286   17.0160    0.0000   CA  389  GRA        0.000000
    390  C         30.7006   17.7250    0.0000   CA  390  GRA        0.000000
    391  C         30.7006   19.1430    0.0000   CA  391  GRA        0.000000
    392  C         31.9286   19.8520    0.0000   CA  392  GRA        0.000000
    393  C         34.3847   17.0160    0.0000   CA  393  GRA        0.000000
    394  C         33.1566   17.7250    0.0000   CA  394  GRA        0.000000
    395  C         33.1566   19.1430    0.0000   CA  395  GRA        0.000000
    396  C         34.3847   19.8520    0.0000   CA  396  GRA        0.000000
    397  C         36.8407   17.0160    0.0000   CA  397  GRA        0.000000
    398  C         35.6127   17.7250    0.0000   CA  398  GRA        0.000000
    399  C         35.6127   19.1430    0.0000   CA  399  GRA        0.000000
    400  C         36.8407   19.8520    0.0000   CA  400  GRA        0.000000
    401  C         39.2968   17.0160    0.0000   CA  401  GRA        0.000000
    402  C         38.0687   17.7250    0.0000   CA  402  GRA        0.000000
    403  C         38.0687   19.1430    0.0000   CA  403  GRA        0.000000
    404  C         39.2968   19.8520    0.0000   CA  404  GRA        0.000000
    405  C         41.7528   17.0160    0.0000   CA  405  GRA        0.000000
    406  C         40.5248   17.7250    0.0000   CA  406  GRA        0.000000
    407  C         40.5248   19.1430    0.0000   CA  407  GRA        0.000000
    408  C         41.7528   19.8520    0.0000   CA  408  GRA        0.000000
    409  C         44.2089   17.0160    0.0000   CA  409  GRA        0.000000
    410  C         42.9808   17.7250    0.0000   CA  410  GRA        0.000000
    411  C         42.9808   19.1430    0.0000   CA  411  GRA        0.000000
    412  C         44.2089   19.8520    0.0000   CA  412  GRA        0.000000
    413  C         46.6649   17.0160    0.0000   CA  413  GRA        0.000000
    414  C         45.4369   17.7250    0.0000   CA  414  GRA        0.000000
    415  C         45.4369   19.1430    0.0000   CA  415  GRA        0.000000
    416  C         46.6649   19.8520    0.0000   CA  416  GRA        0.000000
    417  C         49.1210   17.0160    0.0000   CA  417  GRA        0.000000
    418  C         47.8929   17.7250    0.0000   CA  418  GRA        0.000000
    419  C         47.8929   19.1430    0.0000   CA  419  GRA        0.000000
    420  C         49.1210   19.8520    0.0000   CA  420  GRA        0.000000
    421  C          0.0000   21.2700    0.0000   CA  421  GRA        0.000000
    422  C         -1.2280   21.9790    0.0000   CA  422  GRA        0.000000
    423  C         -1.2280   23.3970    0.0000   CA  423  GRA        0.000000
    424  C          0.0000   24.1060    0.0000   CA  424  GRA        0.000000
    425  C          2.4560   21.2700    0.0000   CA  425  GRA        0.000000
    426  C          1.2280   21.9790    0.0000   CA  426  GRA        0.000000
    427  C          1.2280   23.3970    0.0000   CA  427  GRA        0.000000
    428  C          2.4560   24.1060    0.0000   CA  428  GRA        0.000000
    429  C          4.9121   21.2700    0.0000   CA  429  GRA        0.000000
    430  C          3.6841   21.9790    0.0000   CA  430  GRA        0.000000
    431  C          3.6841   23.3970    0.0000   CA  431  GRA        0.000000
    432  C          4.9121   24.1060    0.0000   CA  432  GRA        0.000000
    433  C          7.3681   21.2700    0.0000   CA  433  GRA        0.000000
    434  C          6.1401   21.9790    0.0000   CA  434  GRA        0.000000
    435  C          6.1401   23.3970    0.0000   CA  435  GRA        0.000000
    436  C          7.3681   24.1060    0.0000   CA  436  GRA        0.000000
    437  C          9.8242   21.2700    0.0000   CA  437  GRA        0.000000
    438  C          8.5962   21.9790    0.0000   CA  438  GRA        0.000000
    439  C          8.5962   23.3970    0.0000   CA  439  GRA        0.000000
    440  C          9.8242   24.1060    0.0000   CA  440  GRA        0.000000
    441  C         12.2802   21.2700    0.0000   CA  441  GRA        0.000000
    442  C         11.0522   21.9790    0.0000   CA  442  GRA        0.000000
    443  C         11.0522   23.3970    0.0000   CA  443  GRA        0.000000
    444  C         12.2802   24.1060    0.0000   CA  444  GRA        0.000000
    445  C         14.7363   21.2700    0.0000   CA  445  GRA        0.000000
    446  C         13.5083   21.9790    0.0000   CA  446  GRA        0.000000
    447  C         13.5083   23.3970    0.0000   CA  447  GRA        0.000000
    448  C         14.7363   24.1060    0.0000   CA  448  GRA        0.000000
    449  C         17.1923   21.2700    0.0000   CA  449  GRA        0.000000
    450  C         15.9643   21.9790    0.0000   CA  450  GRA        0.000000
    451  C         15.9643   23.3970    0.0000   CA  451  GRA        0.000000
    452  C         17.1923   24.1060    0.0000   CA  452  GRA        0.000000
    453  C         19.6484   21.2700    0.0000   CA  453  GRA        0.000000
    454  C         18.4204   21.9790    0.0000   CA  454  GRA        0.000000
    455  C         18.4204   23.3970    0.0000   CA  455  GRA        0.000000
    456  C         19.6484   24.1060    0.0000   CA  456  GRA        0.000000
    457  C         22.1044   21.2700    0.0000   CA  457  GRA        0.000000
    458  C         20.8764   21.9790    0.0000   CA  458  GRA        0.000000
    459  C         20.8764   23.3970    0.0000   CA  459  GRA        0.000000
    460  C         22.1044   24.1060    0.0000   CA  460  GRA        0.000000
    461  C         24.5605   21.2700    0.0000   CA  461  GRA        0.000000
    462  C         23.3325   21.9790    0.0000   CA  462  GRA        0.000000
    463  C         23.3325   23.3970    0.0000   CA  463  GRA        0.000000
    464  C         24.5605   24.1060    0.0000   CA  464  GRA        0.000000
    465  C         27.0165   21.2700    0.0000   CA  465  GRA        0.000000
    466  C         25.7885   21.9790    0.0000   CA  466  GRA        0.000000
    467  C         25.7885   23.3970    0.0000   CA  467  GRA        0.000000
    468  C         27.0165   24.1060    0.0000   CA  468  GRA        0.000000
    469  C         29.4726   21.2700    0.0000   CA  469  GRA        0.000000
    470  C         28.2446   21.9790    0.0000   CA  470  GRA        0.000000
    471  C         28.2446   23.3970    0.0000   CA  471  GRA        0.000000
    472  C         29.4726   24.1060    0.0000   CA  472  GRA        0.000000
    473  C         31.9286   21.2700    0.0000   CA  473  GRA        0.000000
    474  C         30.7006   21.9790    0.0000   CA  474  GRA        0.000000
    475  C         30.7006   23.3970    0.0000   CA  475  GRA        0.000000
    476  C         31.9286   24.1060    0.0000   CA  476  GRA        0.000000
    477  C         34.3847   21.2700    0.0000   CA  477  GRA        0.000000
    478  C         33.1566   21.9790    0.0000   CA  478  GRA        0.000000
    479  C         33.1566   23.3970    0.0000   CA  479  GRA        0.000000
    480  C         34.3847   24.1060    0.0000   CA  480  GRA        0.000000
    481  C         36.8407   21.2700    0.0000   CA  481  GRA        0.000000
    482  C         35.6127   21.9790    0.0000   CA  482  GRA        0.000000
    483  C         35.6127   23.3970    0.0000   CA  483  GRA        0.000000
    484  C         36.8407   24.1060    0.0000   CA  484  GRA        0.000000
    485  C         39.2968   21.2700    0.0000   CA  485  GRA        0.000000
    486  C         38.0687   21.9790    0.0000   CA  486  GRA        0.000000
    487  C         38.0687   23.3970    0.0000   CA  487  GRA        0.000000
    488  C         39.2968   24.1060    0.0000   CA  488  GRA        0.000000
    489  C         41.7528   21.2700    0.0000   CA  489  GRA        0.000000
    490  C         40.5248   21.9790    0.0000   CA  490  GRA        0.000000
    491  C         40.5248   23.3970    0.0000   CA  491  GRA        0.000000
    492  C         41.7528   24.1060    0.0000   CA  492  GRA        0.000000
    493  C         44.2089   21.2700    0.0000   CA  493  GRA        0.000000
    494  C         42.9808   21.9790    0.0000   CA  494  GRA        0.000000
    495  C         42.9808   23.3970    0.0000   CA  495  GRA        0.000000
    496  C         44.2089   24.1060    0.0000   CA  496  GRA        0.000000
    497  C         46.6649   21.2700    0.0000   CA  497  GRA        0.000000
    498  C         45.4369   21.9790    0.0000   CA  498  GRA        0.000000
    499  C         45.4369   23.3970    0.0000   CA  499  GRA        0.000000
    500  C         46.6649   24.1060    0.0000   CA  500  GRA        0.000000
    501  C         49.1210   21.2700    0.0000   CA  501  GRA        0.000000
    502  C         47.8929   21.9790    0.0000   CA  502  GRA        0.000000
    503  C         47.8929   23.3970    0.0000   CA  503  GRA        0.000000
    504  C         49.1210   24.1060    0.0000   CA  504  GRA        0.000000
    505  C          0.0000   25.5240    0.0000   CA  505  GRA        0.000000
    506  C         -1.2280   26.2330    0.0000   CA  506  GRA        0.000000
    507  C         -1.2280   27.6510    0.0000   CA  507  GRA        0.000000
    508  C          0.0000   28.3600    0.0000   CA  508  GRA        0.000000
    509  C          2.4560   25.5240    0.0000   CA  509  GRA        0.000000
    510  C          1.2280   26.2330    0.0000   CA  510  GRA        0.000000
    511  C          1.2280   27.6510    0.0000   CA  511  GRA        0.000000
    512  C          2.4560   28.3600    0.0000   CA  512  GRA        0.000000
    513  C          4.9121   25.5240    0.0000   CA  513  GRA        0.000000
    514  C          3.6841   26.2330    0.0000   CA  514  GRA        0.000000
    515  C          3.6841   27.6510    0.0000   CA  515  GRA        0.000000
    516  C          4.9121   28.3600    0.0000   CA  516  GRA        0.000000
    517  C          7.3681   25.5240    0.0000   CA  517  GRA        0.000000
    518  C          6.1401   26.2330    0.0000   CA  518  GRA        0.000000
    519  C          6.1401   27.6510    0.0000   CA  519  GRA        0.000000
    520  C          7.3681   28.3600    0.0000   CA  520  GRA        0.000000
    521  C          9.8242   25.5240    0.0000   CA  521  GRA        0.000000
    522  C          8.5962   26.2330    0.0000   CA  522  GRA        0.000000
    523  C          8.5962   27.6510    0.0000   CA  523  GRA        0.000000
    524  C          9.8242   28.3600    0.0000   CA  524  GRA        0.000000
    525  C         12.2802   25.5240    0.0000   CA  525  GRA        0.000000
    526  C         11.0522   26.2330    0.0000   CA  526  GRA        0.000000
    527  C         11.0522   27.6510    0.0000   CA  527  GRA        0.000000
    528  C         12.2802   28.3600    0.0000   CA  528  GRA        0.000000
    529  C         14.7363   25.5240    0.0000   CA  529  GRA        0.000000
    530  C         13.5083   26.2330    0.0000   CA  530  GRA        0.000000
    531  C         13.5083   27.6510    0.0000   CA  531  GRA        0.000000
    532  C         14.7363   28.3600    0.0000   CA  532  GRA        0.000000
    533  C         17.1923   25.5240    0.0000   CA  533  GRA        0.000000
    534  C         15.9643   26.2330    0.0000   CA  534  GRA        0.000000
    535  C         15.9643   27.6510    0.0000   CA  535  GRA        0.000000
    536  C         17.1923   28.3600    0.0000   CA  536  GRA        0.000000
    537  C         19.6484   25.5240    0.0000   CA  537  GRA        0.000000
    538  C         18.4204   26.2330    0.0000   CA  538  GRA        0.000000
    539  C         18.4204   27.6510    0.0000   CA  539  GRA        0.000000
    540  C         19.6484   28.3600    0.0000   CA  540  GRA        0.000000
    541  C         22.1044   25.5240    0.0000   CA  541  GRA        0.000000
    542  C         20.8764   26.2330    0.0000   CA  542  GRA        0.000000
    543  C         20.8764   27.6510    0.0000   CA  543  GRA        0.000000
    544  C         22.1044   28.3600    0.0000   CA  544  GRA        0.000000
    545  C         24.5605   25.5240    0.0000   CA  545  GRA        0.000000
    546  C         23.3325   26.2330    0.0000   CA  546  GRA        0.000000
    547  C         23.3325   27.6510    0.0000   CA  547  GRA        0.000000
    548  C         24.5605   28.3600    0.0000   CA  548  GRA        0.000000
    549  C         27.0165   25.5240    0.0000   CA  549  GRA        0.000000
    550  C         25.7885   26.2330    0.0000   CA  550  GRA        0.000000
    551  C         25.7885   27.6510    0.0000   CA  551  GRA        0.000000
    552  C         27.0165   28.3600    0.0000   CA  552  GRA        0.000000
    553  C         29.4726   25.5240    0.0000   CA  553  GRA        0.000000
    554  C         28.2446   26.2330    0.0000   CA  554  GRA        0.000000
    555  C         28.2446   27.6510    0.0000   CA  555  GRA        0.000000
    556  C         29.4726   28.3600    0.0000   CA  556  GRA        0.000000
    557  C         31.9286   25.5240    0.0000   CA  557  GRA        0.000000
    558  C         30.7006   26.2330    0.0000   CA  558  GRA        0.000000
    559  C         30.7006   27.6510    0.0000   CA  559  GRA        0.000000
    560  C         31.9286   28.3600    0.0000   CA  560  GRA        0.000000
    561  C         34.3847   25.5240    0.0000   CA  561  GRA        0.000000
    562  C         33.1566   26.2330    0.0000   CA  562  GRA        0.000000
    563  C         33.1566   27.6510    0.0000   CA  563  GRA        0.000000
    564  C         34.3847   28.3600    0.0000   CA  564  GRA        0.000000
    565  C         36.8407   25.5240    0.0000   CA  565  GRA        0.000000
    566  C         35.6127   26.2330    0.0000   CA  566  GRA        0.000000
    567  C         35.6127   27.6510    0.0000   CA  567  GRA        0.000000
    568  C         36.8407   28.3600    0.0000   CA  568  GRA        0.000000
    569  C         39.2968   25.5240    0.0000   CA  569  GRA        0.000000
    570  C         38.0687   26.2330    0.0000   CA  570  GRA        0.000000
    571  C         38.0687   27.6510    0.0000   CA  571  GRA        0.000000
    572  C         39.2968   28.3600    0.0000   CA  572  GRA        0.000000
    573  C         41.7528   25.5240    0.0000   CA  573  GRA        0.000000
    574  C         40.5248   26.2330    0.0000   CA  574  GRA        0.000000
    575  C         40.5248   27.6510    0.0000   CA  575  GRA        0.000000
    576  C         41.7528   28.3600    0.0000   CA  576  GRA        0.000000
    577  C         44.2089   25.5240    0.0000   CA  577  GRA        0.000000
    578  C         42.9808   26.2330    0.0000   CA  578  GRA        0.000000
    579  C         42.9808   27.6510    0.0000   CA  579  GRA        0.000000
    580  C         44.2089   28.3600    0.0000   CA  580  GRA        0.000000
    581  C         46.6649   25.5240    0.0000   CA  581  GRA        0.000000
    582  C         45.4369   26.2330    0.0000   CA  582  GRA        0.000000
    583  C         45.4369   27.6510    0.0000   CA  583  GRA        0.000000
    584  C         46.6649   28.3600    0.0000   CA  584  GRA        0.000000
    585  C         49.1210   25.5240    0.0000   CA  585  GRA        0.000000
    586  C         47.8929   26.2330    0.0000   CA  586  GRA        0.000000
    587  C         47.8929   27.6510    0.0000   CA  587  GRA        0.000000
    588  C         49.1210   28.3600    0.0000   CA  588  GRA        0.000000
    589  C          0.0000   29.7780    0.0000   CA  589  GRA        0.000000
    590  C         -1.2280   30.4870    0.0000   CA  590  GRA        0.000000
    591  C         -1.2280   31.9050    0.0000   CA  591  GRA        0.000000
    592  C          0.0000   32.6140    0.0000   CA  592  GRA        0.000000
    593  C          2.4560   29.7780    0.0000   CA  593  GRA        0.000000
    594  C          1.2280   30.4870    0.0000   CA  594  GRA        0.000000
    595  C          1.2280   31.9050    0.0000   CA  595  GRA        0.000000
    596  C          2.4560   32.6140    0.0000   CA  596  GRA        0.000000
    597  C          4.9121   29.7780    0.0000   CA  597  GRA        0.000000
    598  C          3.6841   30.4870    0.0000   CA  598  GRA        0.000000
    599  C          3.6841   31.9050    0.0000   CA  599  GRA        0.000000
    600  C          4.9121   32.6140    0.0000   CA  600  GRA        0.000000
    601  C          7.3681   29.7780    0.0000   CA  601  GRA        0.000000
    602  C          6.1401   30.4870    0.0000   CA  602  GRA        0.000000
    603  C          6.1401   31.9050    0.0000   CA  603  GRA        0.000000
    604  C          7.3681   32.6140    0.0000   CA  604  GRA        0.000000
    605  C          9.8242   29.7780    0.0000   CA  605  GRA        0.000000
    606  C          8.5962   30.4870    0.0000   CA  606  GRA        0.000000
    607  C          8.5962   31.9050    0.0000   CA  607  GRA        0.000000
    608  C          9.8242   32.6140    0.0000   CA  608  GRA        0.000000
    609  C         12.2802   29.7780    0.0000   CA  609  GRA        0.000000
    610  C         11.0522   30.4870    0.0000   CA  610  GRA        0.000000
    611  C         11.0522   31.9050    0.0000   CA  611  GRA        0.000000
    612  C         12.2802   32.6140    0.0000   CA  612  GRA        0.000000
    613  C         14.7363   29.7780    0.0000   CA  613  GRA        0.000000
    614  C         13.5083   30.4870    0.0000   CA  614  GRA        0.000000
    615  C         13.5083   31.9050    0.0000   CA  615  GRA        0.000000
    616  C         14.7363   32.6140    0.0000   CA  616  GRA        0.000000
    617  C         17.1923   29.7780    0.0000   CA  617  GRA        0.000000
    618  C         15.9643   30.4870    0.0000   CA  618  GRA        0.000000
    619  C         15.9643   31.9050    0.0000   CA  619  GRA        0.000000
    620  C         17.1923   32.6140    0.0000   CA  620  GRA        0.000000
    621  C         19.6484   29.7780    0.0000   CA  621  GRA        0.000000
    622  C         18.4204   30.4870    0.0000   CA  622  GRA        0.000000
    623  C         18.4204   31.9050    0.0000   CA  623  GRA        0.000000
    624  C         19.6484   32.6140    0.0000   CA  624  GRA        0.000000
    625  C         22.1044   29.7780    0.0000   CA  625  GRA        0.000000
    626  C         20.8764   30.4870    0.0000   CA  626  GRA        0.000000
    627  C         20.8764   31.9050    0.0000   CA  627  GRA        0.000000
    628  C         22.1044   32.6140    0.0000   CA  628  GRA        0.000000
    629  C         24.5605   29.7780    0.0000   CA  629  GRA        0.000000
    630  C         23.3325   30.4870    0.0000   CA  630  GRA        0.000000
    631  C         23.3325   31.9050    0.0000   CA  631  GRA        0.000000
    632  C         24.5605   32.6140    0.0000   CA  632  GRA        0.000000
    633  C         27.0165   29.7780    0.0000   CA  633  GRA        0.000000
    634  C         25.7885   30.4870    0.0000   CA  634  GRA        0.000000
    635  C         25.7885   31.9050    0.0000   CA  635  GRA        0.000000
    636  C         27.0165   32.6140    0.0000   CA  636  GRA        0.000000
    637  C         29.4726   29.7780    0.0000   CA  637  GRA        0.000000
    638  C         28.2446   30.4870    0.0000   CA  638  GRA        0.000000
    639  C         28.2446   31.9050    0.0000   CA  639  GRA        0.000000
    640  C         29.4726   32.6140    0.0000   CA  640  GRA        0.000000
    641  C         31.9286   29.7780    0.0000   CA  641  GRA        0.000000
    642  C         30.7006   30.4870    0.0000   CA  642  GRA        0.000000
    643  C         30.7006   31.9050    0.0000   CA  643  GRA        0.000000
    644  C         31.9286   32.6140    0.0000   CA  644  GRA        0.000000
    645  C         34.3847   29.7780    0.0000   CA  645  GRA        0.000000
    646  C         33.1566   30.4870    0.0000   CA  646  GRA        0.000000
    647  C         33.1566   31.9050    0.0000   CA  647  GRA        0.000000
    648  C         34.3847   32.6140    0.0000   CA  648  GRA        0.000000
    649  C         36.8407   29.7780    0.0000   CA  649  GRA        0.000000
    650  C         35.6127   30.4870    0.0000   CA  650  GRA        0.000000
    651  C         35.6127   31.9050    0.0000   CA  651  GRA        0.000000
    652  C         36.8407   32.6140    0.0000   CA  652  GRA        0.000000
    653  C         39.2968   29.7780    0.0000   CA  653  GRA        0.000000
    654  C         38.0687   30.4870    0.0000   CA  654  GRA        0.000000
    655  C         38.0687   31.9050    0.0000   CA  655  GRA        0.000000
    656  C         39.2968   32.6140    0.0000   CA  656  GRA        0.000000
    657  C         41.7528   29.7780    0.0000   CA  657  GRA        0.000000
    658  C         40.5248   30.4870    0.0000   CA  658  GRA        0.000000
    659  C         40.5248   31.9050    0.0000   CA  659  GRA        0.000000
    660  C         41.7528   32.6140    0.0000   CA  660  GRA        0.000000
    661  C         44.2089   29.7780    0.0000   CA  661  GRA        0.000000
    662  C         42.9808   30.4870    0.0000   CA  662  GRA        0.000000
    663  C         42.9808   31.9050    0.0000   CA  663  GRA        0.000000
    664  C         44.2089   32.6140    0.0000   CA  664  GRA        0.000000
    665  C         46.6649   29.7780    0.0000   CA  665  GRA        0.000000
    666  C         45.4369   30.4870    0.0000   CA  666  GRA        0.000000
    667  C         45.4369   31.9050    0.0000   CA  667  GRA        0.000000
    668  C         46.6649   32.6140    0.0000   CA  668  GRA        0.000000
    669  C         49.1210   29.7780    0.0000   CA  669  GRA        0.000000
    670  C         47.8929   30.4870    0.0000   CA  670  GRA        0.000000
    671  C         47.8929   31.9050    0.0000   CA  671  GRA        0.000000
    672  C         49.1210   32.6140    0.0000   CA  672  GRA        0.000000
    673  C          0.0000   34.0320    0.0000   CA  673  GRA        0.000000
    674  C         -1.2280   34.7410    0.0000   CA  674  GRA        0.000000
    675  C         -1.2280   36.1590    0.0000   CA  675  GRA        0.000000
    676  C          0.0000   36.8680    0.0000   CA  676  GRA        0.000000
    677  C          2.4560   34.0320    0.0000   CA  677  GRA        0.000000
    678  C          1.2280   34.7410    0.0000   CA  678  GRA        0.000000
    679  C          1.2280   36.1590    0.0000   CA  679  GRA        0.000000
    680  C          2.4560   36.8680    0.0000   CA  680  GRA        0.000000
    681  C          4.9121   34.0320    0.0000   CA  681  GRA        0.000000
    682  C          3.6841   34.7410    0.0000   CA  682  GRA        0.000000
    683  C          3.6841   36.1590    0.0000   CA  683  GRA        0.000000
    684  C          4.9121   36.8680    0.0000   CA  684  GRA        0.000000
    685  C          7.3681   34.0320    0.0000   CA  685  GRA        0.000000
    686  C          6.1401   34.7410    0.0000   CA  686  GRA        0.000000
    687  C          6.1401   36.1590    0.0000   CA  687  GRA        0.000000
    688  C          7.3681   36.8680    0.0000   CA  688  GRA        0.000000
    689  C          9.8242   34.0320    0.0000   CA  689  GRA        0.000000
    690  C          8.5962   34.7410    0.0000   CA  690  GRA        0.000000
    691  C          8.5962   36.1590    0.0000   CA  691  GRA        0.000000
    692  C          9.8242   36.8680    0.0000   CA  692  GRA        0.000000
    693  C         12.2802   34.0320    0.0000   CA  693  GRA        0.000000
    694  C         11.0522   34.7410    0.0000   CA  694  GRA        0.000000
    695  C         11.0522   36.1590    0.0000   CA  695  GRA        0.000000
    696  C         12.2802   36.8680    0.0000   CA  696  GRA        0.000000
    697  C         14.7363   34.0320    0.0000   CA  697  GRA        0.000000
    698  C         13.5083   34.7410    0.0000   CA  698  GRA        0.000000
    699  C         13.5083   36.1590    0.0000   CA  699  GRA        0.000000
    700  C         14.7363   36.8680    0.0000   CA  700  GRA        0.000000
    701  C         17.1923   34.0320    0.0000   CA  701  GRA        0.000000
    702  C         15.9643   34.7410    0.0000   CA  702  GRA        0.000000
    703  C         15.9643   36.1590    0.0000   CA  703  GRA        0.000000
    704  C         17.1923   36.8680    0.0000   CA  704  GRA        0.000000
    705  C         19.6484   34.0320    0.0000   CA  705  GRA        0.000000
    706  C         18.4204   34.7410    0.0000   CA  706  GRA        0.000000
    707  C         18.4204   36.1590    0.0000   CA  707  GRA        0.000000
    708  C         19.6484   36.8680    0.0000   CA  708  GRA        0.000000
    709  C         22.1044   34.0320    0.0000   CA  709  GRA        0.000000
    710  C         20.8764   34.7410    0.0000   CA  710  GRA        0.000000
    711  C         20.8764   36.1590    0.0000   CA  711  GRA        0.000000
    712  C         22.1044   36.8680    0.0000   CA  712  GRA        0.000000
    713  C         24.5605   34.0320    0.0000   CA  713  GRA        0.000000
    714  C         23.3325   34.7410    0.0000   CA  714  GRA        0.000000
    715  C         23.3325   36.1590    0.0000   CA  715  GRA        0.000000
    716  C         24.5605   36.8680    0.0000   CA  716  GRA        0.000000
    717  C         27.0165   34.0320    0.0000   CA  717  GRA        0.000000
    718  C         25.7885   34.7410    0.0000   CA  718  GRA        0.000000
    719  C         25.7885   36.1590    0.0000   CA  719  GRA        0.000000
    720  C         27.0165   36.8680    0.0000   CA  720  GRA        0.000000
    721  C         29.4726   34.0320    0.0000   CA  721  GRA        0.000000
    722  C         28.2446   34.7410    0.0000   CA  722  GRA        0.000000
    723  C         28.2446   36.1590    0.0000   CA  723  GRA        0.000000
    724  C         29.4726   36.8680    0.0000   CA  724  GRA        0.000000
    725  C         31.9286   34.0320    0.0000   CA  725  GRA        0.000000
    726  C         30.7006   34.7410    0.0000   CA  726  GRA        0.000000
    727  C         30.7006   36.1590    0.0000   CA  727  GRA        0.000000
    728  C         31.9286   36.8680    0.0000   CA  728  GRA        0.000000
    729  C         34.3847   34.0320    0.0000   CA  729  GRA        0.000000
    730  C         33.1566   34.7410    0.0000   CA  730  GRA        0.000000
    731  C         33.1566   36.1590    0.0000   CA  731  GRA        0.000000
    732  C         34.3847   36.8680    0.0000   CA  732  GRA        0.000000
    733  C         36.8407   34.0320    0.0000   CA  733  GRA        0.000000
    734  C         35.6127   34.7410    0.0000   CA  734  GRA        0.000000
    735  C         35.6127   36.1590    0.0000   CA  735  GRA        0.000000
    736  C         36.8407   36.8680    0.0000   CA  736  GRA        0.000000
    737  C         39.2968   34.0320    0.0000   CA  737  GRA        0.000000
    738  C         38.0687   34.7410    0.0000   CA  738  GRA        0.000000
    739  C         38.0687   36.1590    0.0000   CA  739  GRA        0.000000
    740  C         39.2968   36.8680    0.0000   CA  740  GRA        0.000000
    741  C         41.7528   34.0320    0.0000   CA  741  GRA        0.000000
    742  C         40.5248   34.7410    0.0000   CA  742  GRA        0.000000
    743  C         40.5248   36.1590    0.0000   CA  743  GRA        0.000000
    744  C         41.7528   36.8680    0.0000   CA  744  GRA        0.000000
    745  C         44.2089   34.0320    0.0000   CA  745  GRA        0.000000
    746  C         42.9808   34.7410    0.0000   CA  746  GRA        0.000000
    747  C         42.9808   36.1590    0.0000   CA  747  GRA        0.000000
    748  C         44.2089   36.8680    0.0000   CA  748  GRA        0.000000
    749  C         46.6649   34.0320    0.0000   CA  749  GRA        0.000000
    750  C         45.4369   34.7410    0.0000   CA  750  GRA        0.000000
    751  C         45.4369   36.1590    0.0000   CA  751  GRA        0.000000
    752  C         46.6649   36.8680    0.0000   CA  752  GRA        0.000000
    753  C         49.1210   34.0320    0.0000   CA  753  GRA        0.000000
    754  C         47.8929   34.7410    0.0000   CA  754  GRA        0.000000
    755  C         47.8929   36.1590    0.0000   CA  755  GRA        0.000000
    756  C         49.1210   36.8680    0.0000   CA  756  GRA        0.000000
    757  C          0.0000   38.2860    0.0000   CA  757  GRA        0.000000
    758  C         -1.2280   38.9950    0.0000   CA  758  GRA        0.000000
    759  C         -1.2280   40.4130    0.0000   CA  759  GRA        0.000000
    760  C          0.0000   41.1220    0.0000   CA  760  GRA        0.000000
    761  C          2.4560   38.2860    0.0000   CA  761  GRA        0.000000
    762  C          1.2280   38.9950    0.0000   CA  762  GRA        0.000000
    763  C          1.2280   40.4130    0.0000   CA  763  GRA        0.000000
    764  C          2.4560   41.1220    0.0000   CA  764  GRA        0.000000
    765  C          4.9121   38.2860    0.0000   CA  765  GRA        0.000000
    766  C          3.6841   38.9950    0.0000   CA  766  GRA        0.000000
    767  C          3.6841   40.4130    0.0000   CA  767  GRA        0.000000
    768  C          4.9121   41.1220    0.0000   CA  768  GRA        0.000000
    769  C          7.3681   38.2860    0.0000   CA  769  GRA        0.000000
    770  C          6.1401   38.9950    0.0000   CA  770  GRA        0.000000
    771  C          6.1401   40.4130    0.0000   CA  771  GRA        0.000000
    772  C          7.3681   41.1220    0.0000   CA  772  GRA        0.000000
    773  C          9.8242   38.2860    0.0000   CA  773  GRA        0.000000
    774  C          8.5962   38.9950    0.0000   CA  774  GRA        0.000000
    775  C          8.5962   40.4130    0.0000   CA  775  GRA        0.000000
    776  C          9.8242   41.1220    0.0000   CA  776  GRA        0.000000
    777  C         12.2802   38.2860    0.0000   CA  777  GRA        0.000000
    778  C         11.0522   38.9950    0.0000   CA  778  GRA        0.000000
    779  C         11.0522   40.4130    0.0000   CA  779  GRA        0.000000
    780  C         12.2802   41.1220    0.0000   CA  780  GRA        0.000000
    781  C         14.7363   38.2860    0.0000   CA  781  GRA        0.000000
    782  C         13.5083   38.9950    0.0000   CA  782  GRA        0.000000
    783  C         13.5083   40.4130    0.0000   CA  783  GRA        0.000000
    784  C         14.7363   41.1220    0.0000   CA  784  GRA        0.000000
    785  C         17.1923   38.2860    0.0000   CA  785  GRA        0.000000
    786  C         15.9643   38.9950    0.0000   CA  786  GRA        0.000000
    787  C         15.9643   40.4130    0.0000   CA  787  GRA        0.000000
    788  C         17.1923   41.1220    0.0000   CA  788  GRA        0.000000
    789  C         19.6484   38.2860    0.0000   CA  789  GRA        0.000000
    790  C         18.4204   38.9950    0.0000   CA  790  GRA        0.000000
    791  C         18.4204   40.4130    0.0000   CA  791  GRA        0.000000
    792  C         19.6484   41.1220    0.0000   CA  792  GRA        0.000000
    793  C         22.1044   38.2860    0.0000   CA  793  GRA        0.000000
    794  C         20.8764   38.9950    0.0000   CA  794  GRA        0.000000
    795  C         20.8764   40.4130    0.0000   CA  795  GRA        0.000000
    796  C         22.1044   41.1220    0.0000   CA  796  GRA        0.000000
    797  C         24.5605   38.2860    0.0000   CA  797  GRA        0.000000
    798  C         23.3325   38.9950    0.0000   CA  798  GRA        0.000000
    799  C         23.3325   40.4130    0.0000   CA  799  GRA        0.000000
    800  C         24.5605   41.1220    0.0000   CA  800  GRA        0.000000
    801  C         27.0165   38.2860    0.0000   CA  801  GRA        0.000000
    802  C         25.7885   38.9950    0.0000   CA  802  GRA        0.000000
    803  C         25.7885   40.4130    0.0000   CA  803  GRA        0.000000
    804  C         27.0165   41.1220    0.0000   CA  804  GRA        0.000000
    805  C         29.4726   38.2860    0.0000   CA  805  GRA        0.000000
    806  C         28.2446   38.9950    0.0000   CA  806  GRA        0.000000
    807  C         28.2446   40.4130    0.0000   CA  807  GRA        0.000000
    808  C         29.4726   41.1220    0.0000   CA  808  GRA        0.000000
    809  C         31.9286   38.2860    0.0000   CA  809  GRA        0.000000
    810  C         30.7006   38.9950    0.0000   CA  810  GRA        0.000000
    811  C         30.7006   40.4130    0.0000   CA  811  GRA        0.000000
    812  C         31.9286   41.1220    0.0000   CA  812  GRA        0.000000
    813  C         34.3847   38.2860    0.0000   CA  813  GRA        0.000000
    814  C         33.1566   38.9950    0.0000   CA  814  GRA        0.000000
    815  C         33.1566   40.4130    0.0000   CA  815  GRA        0.000000
    816  C         34.3847   41.1220    0.0000   CA  816  GRA        0.000000
    817  C         36.8407   38.2860    0.0000   CA  817  GRA        0.000000
    818  C         35.6127   38.9950    0.0000   CA  818  GRA        0.000000
    819  C         35.6127   40.4130    0.0000   CA  819  GRA        0.000000
    820  C         36.8407   41.1220    0.0000   CA  820  GRA        0.000000
    821  C         39.2968   38.2860    0.0000   CA  821  GRA        0.000000
    822  C         38.0687   38.9950    0.0000   CA  822  GRA        0.000000
    823  C         38.0687   40.4130    0.0000   CA  823  GRA        0.000000
    824  C         39.2968   41.1220    0.0000   CA  824  GRA        0.000000
    825  C         41.7528   38.2860    0.0000   CA  825  GRA        0.000000
    826  C         40.5248   38.9950    0.0000   CA  826  GRA        0.000000
    827  C         40.5248   40.4130    0.0000   CA  827  GRA        0.000000
    828  C         41.7528   41.1220    0.0000   CA  828  GRA        0.000000
    829  C         44.2089   38.2860    0.0000   CA  829  GRA        0.000000
    830  C         42.9808   38.9950    0.0000   CA  830  GRA        0.000000
    831  C         42.9808   40.4130    0.0000   CA  831  GRA        0.000000
    832  C         44.2089   41.1220    0.0000   CA  832  GRA        0.000000
    833  C         46.6649   38.2860    0.0000   CA  833  GRA        0.000000
    834  C         45.4369   38.9950    0.0000   CA  834  GRA        0.000000
    835  C         45.4369   40.4130    0.0000   CA  835  GRA        0.000000
    836  C         46.6649   41.1220    0.0000   CA  836  GRA        0.000000
    837  C         49.1210   38.2860    0.0000   CA  837  GRA        0.000000
    838  C         47.8929   38.9950    0.0000   CA  838  GRA        0.000000
    839  C         47.8929   40.4130    0.0000   CA  839  GRA        0.000000
    840  C         49.1210   41.1220    0.0000   CA  840  GRA        0.000000
    841  C          0.0000   42.5400    0.0000   CA  841  GRA        0.000000
    842  C         -1.2280   43.2490    0.0000   CA  842  GRA        0.000000
    843  C         -1.2280   44.6670    0.0000   CA  843  GRA        0.000000
    844  C          0.0000   45.3760    0.0000   CA  844  GRA        0.000000
    845  C          2.4560   42.5400    0.0000   CA  845  GRA        0.000000
    846  C          1.2280   43.2490    0.0000   CA  846  GRA        0.000000
    847  C          1.2280   44.6670    0.0000   CA  847  GRA        0.000000
    848  C          2.4560   45.3760    0.0000   CA  848  GRA        0.000000
    849  C          4.9121   42.5400    0.0000   CA  849  GRA        0.000000
    850  C          3.6841   43.2490    0.0000   CA  850  GRA        0.000000
    851  C          3.6841   44.6670    0.0000   CA  851  GRA        0.000000
    852  C          4.9121   45.3760    0.0000   CA  852  GRA        0.000000
    853  C          7.3681   42.5400    0.0000   CA  853  GRA        0.000000
    854  C          6.1401   43.2490    0.0000   CA  854  GRA        0.000000
    855  C          6.1401   44.6670    0.0000   CA  855  GRA        0.000000
    856  C          7.3681   45.3760    0.0000   CA  856  GRA        0.000000
    857  C          9.8242   42.5400    0.0000   CA  857  GRA        0.000000
    858  C          8.5962   43.2490    0.0000   CA  858  GRA        0.000000
    859  C          8.5962   44.6670    0.0000   CA  859  GRA        0.000000
    860  C          9.8242   45.3760    0.0000   CA  860  GRA        0.000000
    861  C         12.2802   42.5400    0.0000   CA  861  GRA        0.000000
    862  C         11.0522   43.2490    0.0000   CA  862  GRA        0.000000
    863  C         11.0522   44.6670    0.0000   CA  863  GRA        0.000000
    864  C         12.2802   45.3760    0.0000   CA  864  GRA        0.000000
    865  C         14.7363   42.5400    0.0000   CA  865  GRA        0.000000
    866  C         13.5083   43.2490    0.0000   CA  866  GRA        0.000000
    867  C         13.5083   44.6670    0.0000   CA  867  GRA        0.000000
    868  C         14.7363   45.3760    0.0000   CA  868  GRA        0.000000
    869  C         17.1923   42.5400    0.0000   CA  869  GRA        0.000000
    870  C         15.9643   43.2490    0.0000   CA  870  GRA        0.000000
    871  C         15.9643   44.6670    0.0000   CA  871  GRA        0.000000
    872  C         17.1923   45.3760    0.0000   CA  872  GRA        0.000000
    873  C         19.6484   42.5400    0.0000   CA  873  GRA        0.000000
    874  C         18.4204   43.2490    0.0000   CA  874  GRA        0.000000
    875  C         18.4204   44.6670    0.0000   CA  875  GRA        0.000000
    876  C         19.6484   45.3760    0.0000   CA  876  GRA        0.000000
    877  C         22.1044   42.5400    0.0000   CA  877  GRA        0.000000
    878  C         20.8764   43.2490    0.0000   CA  878  GRA        0.000000
    879  C         20.8764   44.6670    0.0000   CA  879  GRA        0.000000
    880  C         22.1044   45.3760    0.0000   CA  880  GRA        0.000000
    881  C         24.5605   42.5400    0.0000   CA  881  GRA        0.000000
    882  C         23.3325   43.2490    0.0000   CA  882  GRA        0.000000
    883  C         23.3325   44.6670    0.0000   CA  883  GRA        0.000000
    884  C         24.5605   45.3760    0.0000   CA  884  GRA        0.000000
    885  C         27.0165   42.5400    0.0000   CA  885  GRA        0.000000
    886  C         25.7885   43.2490    0.0000   CA  886  GRA        0.000000
    887  C         25.7885   44.6670    0.0000   CA  887  GRA        0.000000
    888  C         27.0165   45.3760    0.0000   CA  888  GRA        0.000000
    889  C         29.4726   42.5400    0.0000   CA  889  GRA        0.000000
    890  C         28.2446   43.2490    0.0000   CA  890  GRA        0.000000
    891  C         28.2446   44.6670    0.0000   CA  891  GRA        0.000000
    892  C         29.4726   45.3760    0.0000   CA  892  GRA        0.000000
    893  C         31.9286   42.5400    0.0000   CA  893  GRA        0.000000
    894  C         30.7006   43.2490    0.0000   CA  894  GRA        0.000000
    895  C         30.7006   44.6670    0.0000   CA  895  GRA        0.000000
    896  C         31.9286   45.3760    0.0000   CA  896  GRA        0.000000
    897  C         34.3847   42.5400    0.0000   CA  897  GRA        0.000000
    898  C         33.1566   43.2490    0.0000   CA  898  GRA        0.000000
    899  C         33.1566   44.6670    0.0000   CA  899  GRA        0.000000
    900  C         34.3847   45.3760    0.0000   CA  900  GRA        0.000000
    901  C         36.8407   42.5400    0.0000   CA  901  GRA        0.000000
    902  C         35.6127   43.2490    0.0000   CA  902  GRA        0.000000
    903  C         35.6127   44.6670    0.0000   CA  903  GRA        0.000000
    904  C         36.8407   45.3760    0.0000   CA  904  GRA        0.000000
    905  C         39.2968   42.5400    0.0000   CA  905  GRA        0.000000
    906  C         38.0687   43.2490    0.0000   CA  906  GRA        0.000000
    907  C         38.0687   44.6670    0.0000   CA  907  GRA        0.000000
    908  C         39.2968   45.3760    0.0000   CA  908  GRA        0.000000
    909  C         41.7528   42.5400    0.0000   CA  909  GRA        0.000000
    910  C         40.5248   43.2490    0.0000   CA  910  GRA        0.000000
    911  C         40.5248   44.6670    0.0000   CA  911  GRA        0.000000
    912  C         41.7528   45.3760    0.0000   CA  912  GRA        0.000000
    913  C         44.2089   42.5400    0.0000   CA  913  GRA        0.000000
    914  C         42.9808   43.2490    0.0000   CA  914  GRA        0.000000
    915  C         42.9808   44.6670    0.0000   CA  915  GRA        0.000000
    916  C         44.2089   45.3760    0.0000   CA  916  GRA        0.000000
    917  C         46.6649   42.5400    0.0000   CA  917  GRA        0.000000
    918  C         45.4369   43.2490    0.0000   CA  918  GRA        0.000000
    919  C         45.4369   44.6670    0.0000   CA  919  GRA        0.000000
    920  C         46.6649   45.3760    0.0000   CA  920  GRA        0.000000
    921  C         49.1210   42.5400    0.0000   CA  921  GRA        0.000000
    922  C         47.8929   43.2490    0.0000   CA  922  GRA        0.000000
    923  C         47.8929   44.6670    0.0000   CA  923  GRA        0.000000
    924  C         49.1210   45.3760    0.0000   CA  924  GRA        0.000000
    925  C          0.0000   46.7940    0.0000   CA  925  GRA        0.000000
    926  C         -1.2280   47.5030    0.0000   CA  926  GRA        0.000000
    927  C         -1.2280   48.9210    0.0000   CA  927  GRA        0.000000
    928  C          0.0000   49.6300    0.0000   CA  928  GRA        0.000000
    929  C          2.4560   46.7940    0.0000   CA  929  GRA        0.000000
    930  C          1.2280   47.5030    0.0000   CA  930  GRA        0.000000
    931  C          1.2280   48.9210    0.0000   CA  931  GRA        0.000000
    932  C          2.4560   49.6300    0.0000   CA  932  GRA        0.000000
    933  C          4.9121   46.7940    0.0000   CA  933  GRA        0.000000
    934  C          3.6841   47.5030    0.0000   CA  934  GRA        0.000000
    935  C          3.6841   48.9210    0.0000   CA  935  GRA        0.000000
    936  C          4.9121   49.6300    0.0000   CA  936  GRA        0.000000
    937  C          7.3681   46.7940    0.0000   CA  937  GRA        0.000000
    938  C          6.1401   47.5030    0.0000   CA  938  GRA        0.000000
    939  C          6.1401   48.9210    0.0000   CA  939  GRA        0.000000
    940  C          7.3681   49.6300    0.0000   CA  940  GRA        0.000000
    941  C          9.8242   46.7940    0.0000   CA  941  GRA        0.000000
    942  C          8.5962   47.5030    0.0000   CA  942  GRA        0.000000
    943  C          8.5962   48.9210    0.0000   CA  943  GRA        0.000000
    944  C          9.8242   49.6300    0.0000   CA  944  GRA        0.000000
    945  C         12.2802   46.7940    0.0000   CA  945  GRA        0.000000
    946  C         11.0522   47.5030    0.0000   CA  946  GRA        0.000000
    947  C         11.0522   48.9210    0.0000   CA  947  GRA        0.000000
    948  C         12.2802   49.6300    0.0000   CA  948  GRA        0.000000
    949  C         14.7363   46.7940    0.0000   CA  949  GRA        0.000000
    950  C         13.5083   47.5030    0.0000   CA  950  GRA        0.000000
    951  C         13.5083   48.9210    0.0000   CA  951  GRA        0.000000
    952  C         14.7363   49.6300    0.0000   CA  952  GRA        0.000000
    953  C         17.1923   46.7940    0.0000   CA  953  GRA        0.000000
    954  C         15.9643   47.5030    0.0000   CA  954  GRA        0.000000
    955  C         15.9643   48.9210    0.0000   CA  955  GRA        0.000000
    956  C         17.1923   49.6300    0.0000   CA  956  GRA        0.000000
    957  C         19.6484   46.7940    0.0000   CA  957  GRA        0.000000
    958  C         18.4204   47.5030    0.0000   CA  958  GRA        0.000000
    959  C         18.4204   48.9210    0.0000   CA  959  GRA        0.000000
    960  C         19.6484   49.6300    0.0000   CA  960  GRA        0.000000
    961  C         22.1044   46.7940    0.0000   CA  961  GRA        0.000000
    962  C         20.8764   47.5030    0.0000   CA  962  GRA        0.000000
    963  C         20.8764   48.9210    0.0000   CA  963  GRA        0.000000
    964  C         22.1044   49.6300    0.0000   CA  964  GRA        0.000000
    965  C         24.5605   46.7940    0.0000   CA  965  GRA        0.000000
    966  C         23.3325   47.5030    0.0000   CA  966  GRA        0.000000
    967  C         23.3325   48.9210    0.0000   CA  967  GRA        0.000000
    968  C         24.5605   49.6300    0.0000   CA  968  GRA        0.000000
    969  C         27.0165   46.7940    0.0000   CA  969  GRA        0.000000
    970  C         25.7885   47.5030    0.0000   CA  970  GRA        0.000000
    971  C         25.7885   48.9210    0.0000   CA  971  GRA        0.000000
    972  C         27.0165   49.6300    0.0000   CA  972  GRA        0.000000
    973  C         29.4726   46.7940    0.0000   CA  973  GRA        0.000000
    974  C         28.2446   47.5030    0.0000   CA  974  GRA        0.000000
    975  C         28.2446   48.9210    0.0000   CA  975  GRA        0.000000
    976  C         29.4726   49.6300    0.0000   CA  976  GRA        0.000000
    977  C         31.9286   46.7940    0.0000   CA  977  GRA        0.000000
    978  C         30.7006   47.5030    0.0000   CA  978  GRA        0.000000
    979  C         30.7006   48.9210    0.0000   CA  979  GRA        0.000000
    980  C         31.9286   49.6300    0.0000   CA  980  GRA        0.000000
    981  C         34.3847   46.7940    0.0000   CA  981  GRA        0.000000
    982  C         33.1566   47.5030    0.0000   CA  982  GRA        0.000000
    983  C         33.1566   48.9210    0.0000   CA  983  GRA        0.000000
    984  C         34.3847   49.6300    0.0000   CA  984  GRA        0.000000
    985  C         36.8407   46.7940    0.0000   CA  985  GRA        0.000000
    986  C         35.6127   47.5030    0.0000   CA  986  GRA        0.000000
    987  C         35.6127   48.9210    0.0000   CA  987  GRA        0.000000
    988  C         36.8407   49.6300    0.0000   CA  988  GRA        0.000000
    989  C         39.2968   46.7940    0.0000   CA  989  GRA        0.000000
    990  C         38.0687   47.5030    0.0000   CA  990  GRA        0.000000
    991  C         38.0687   48.9210    0.0000   CA  991  GRA        0.000000
    992  C         39.2968   49.6300    0.0000   CA  992  GRA        0.000000
    993  C         41.7528   46.7940    0.0000   CA  993  GRA        0.000000
    994  C         40.5248   47.5030    0.0000   CA  994  GRA        0.000000
    995  C         40.5248   48.9210    0.0000   CA  995  GRA        0.000000
    996  C         41.7528   49.6300    0.0000   CA  996  GRA        0.000000
    997  C         44.2089   46.7940    0.0000   CA  997  GRA        0.000000
    998  C         42.9808   47.5030    0.0000   CA  998  GRA        0.000000
    999  C         42.9808   48.9210    0.0000   CA  999  GRA        0.000000
   1000  C         44.2089   49.6300    0.0000   CA 1000  GRA        0.000000
   1001  C         46.6649   46.7940    0.0000   CA 1001  GRA        0.000000
   1002  C         45.4369   47.5030    0.0000   CA 1002  GRA        0.000000
   1003  C         45.4369   48.9210    0.0000   CA 1003  GRA        0.000000
   1004  C         46.6649   49.6300    0.0000   CA 1004  GRA        0.000000
   1005  C         49.1210   46.7940    0.0000   CA 1005  GRA        0.000000
   1006  C         47.8929   47.5030    0.0000   CA 1006  GRA        0.000000
   1007  C         47.8929   48.9210    0.0000   CA 1007  GRA        0.000000
   1008  C         49.1210   49.6300    0.0000   CA 1008  GRA        0.000000
   1009  C          0.0000    1.4180    3.3500   CA 1009  GRA        0.000000
   1010  C         -1.2280    2.1270    3.3500   CA 1010  GRA        0.000000
   1011  C         -1.2280    3.5450    3.3500   CA 1011  GRA        0.000000
   1012  C          0.0000    4.2540    3.3500   CA 1012  GRA        0.000000
   1013  C          2.4560    1.4180    3.3500   CA 1013  GRA        0.000000
   1014  C          1.2280    2.1270    3.3500   CA 1014  GRA        0.000000
   1015  C          1.2280    3.5450    3.3500   CA 1015  GRA        0.000000
   1016  C          2.4560    4.2540    3.3500   CA 1016  GRA        0.000000
   1017  C          4.9121    1.4180    3.3500   CA 1017  GRA        0.000000
   1018  C          3.6841    2.1270    3.3500   CA 1018  GRA        0.000000
   1019  C          3.6841    3.5450    3.3500   CA 1019  GRA        0.000000
   1020  C          4.9121    4.2540    3.3500   CA 1020  GRA        0.000000
   1021  C          7.3681    1.4180    3.3500   CA 1021  GRA        0.000000
   1022  C          6.1401    2.1270    3.3500   CA 1022  GRA        0.000000
   1023  C          6.1401    3.5450    3.3500   CA 1023  GRA        0.000000
   1024  C          7.3681    4.2540    3.3500   CA 1024  GRA        0.000000
   1025  C          9.8242    1.4180    3.3500   CA 1025  GRA        0.000000
   1026  C          8.5962    2.1270    3.3500   CA 1026  GRA        0.000000
   1027  C          8.5962    3.5450    3.3500   CA 1027  GRA        0.000000
   1028  C          9.8242    4.2540    3.3500   CA 1028  GRA        0.000000
   1029  C         12.2802    1.4180    3.3500   CA 1029  GRA        0.000000
   1030  C         11.0522    2.1270    3.3500   CA 1030  GRA        0.000000
   1031  C         11.0522    3.5450    3.3500   CA 1031  GRA        0.000000
   1032  C         12.2802    4.2540    3.3500   CA 1032  GRA        0.000000
   1033  C         14.7363    1.4180    3.3500   CA 1033  GRA        0.000000
   1034  C         13.5083    2.1270    3.3500   CA 1034  GRA        0.000000
   1035  C         13.5083    3.5450    3.3500   CA 1035  GRA        0.000000
   1036  C         14.7363    4.2540    3.3500   CA 1036  GRA        0.000000
   1037  C         17.1923    1.4180    3.3500   CA 1037  GRA        0.000000
   1038  C         15.9643    2.1270    3.3500   CA 1038  GRA        0.000000
   1039  C         15.9643    3.5450    3.3500   CA 1039  GRA        0.000000
   1040  C         17.1923    4.2540    3.3500   CA 1040  GRA        0.000000
   1041  C         19.6484    1.4180    3.3500   CA 1041  GRA        0.000000
   1042  C         18.4204    2.1270    3.3500   CA 1042  GRA        0.000000
   1043  C         18.4204    3.5450    3.3500   CA 1043  GRA        0.000000
   1044  C         19.6484    4.2540    3.3500   CA 1044  GRA        0.000000
   1045  C         22.1044    1.4180    3.3500   CA 1045  GRA        0.000000
   1046  C         20.8764    2.1270    3.3500   CA 1046  GRA        0.000000
   1047  C         20.8764    3.5450    3.3500   CA 1047  GRA        0.000000
   1048  C         22.1044    4.2540    3.3500   CA 1048  GRA        0.000000
   1049  C         24.5605    1.4180    3.3500   CA 1049  GRA        0.000000
   1050  C         23.3325    2.1270    3.3500   CA 1050  GRA        0.000000
   1051  C         23.3325    3.5450    3.3500   CA 1051  GRA        0.000000
   1052  C         24.5605    4.2540    3.3500   CA 1052  GRA        0.000000
   1053  C         27.0165    1.4180    3.3500   CA 1053  GRA        0.000000
   1054  C         25.7885    2.1270    3.3500   CA 1054  GRA        0.000000
   1055  C         25.7885    3.5450    3.3500   CA 1055  GRA        0.000000
   1056  C         27.0165    4.2540    3.3500   CA 1056  GRA        0.000000
   1057  C         29.4726    1.4180    3.3500   CA 1057  GRA        0.000000
   1058  C         28.2446    2.1270    3.3500   CA 1058  GRA        0.000000
   1059  C         28.2446    3.5450    3.3500   CA 1059  GRA        0.000000
   1060  C         29.4726    4.2540    3.3500   CA 1060  GRA        0.000000
   1061  C         31.9286    1.4180    3.3500   CA 1061  GRA        0.000000
   1062  C         30.7006    2.1270    3.3500   CA 1062  GRA        0.000000
   1063  C         30.7006    3.5450    3.3500   CA 1063  GRA        0.000000
   1064  C         31.9286    4.2540    3.3500   CA 1064  GRA        0.000000
   1065  C         34.3847    1.4180    3.3500   CA 1065  GRA        0.000000
   1066  C         33.1566    2.1270    3.3500   CA 1066  GRA        0.000000
   1067  C         33.1566    3.5450    3.3500   CA 1067  GRA        0.000000
   1068  C         34.3847    4.2540    3.3500   CA 1068  GRA        0.000000
   1069  C         36.8407    1.4180    3.3500   CA 1069  GRA        0.000000
   1070  C         35.6127    2.1270    3.3500   CA 1070  GRA        0.000000
   1071  C         35.6127    3.5450    3.3500   CA 1071  GRA        0.000000
   1072  C         36.8407    4.2540    3.3500   CA 1072  GRA        0.000000
   1073  C         39.2968    1.4180    3.3500   CA 1073  GRA        0.000000
   1074  C         38.0687    2.1270    3.3500   CA 1074  GRA        0.000000
   1075  C         38.0687    3.5450    3.3500   CA 1075  GRA        0.000000
   1076  C         39.2968    4.2540    3.3500   CA 1076  GRA        0.000000
   1077  C         41.7528    1.4180    3.3500   CA 1077  GRA        0.000000
   1078  C         40.5248    2.1270    3.3500   CA 1078  GRA        0.000000
   1079  C         40.5248    3.5450    3.3500   CA 1079  GRA        0.000000
   1080  C         41.7528    4.2540    3.3500   CA 1080  GRA        0.000000
   1081  C         44.2089    1.4180    3.3500   CA 1081  GRA        0.000000
   1082  C         42.9808    2.1270    3.3500   CA 1082  GRA        0.000000
   1083  C         42.9808    3.5450    3.3500   CA 1083  GRA        0.000000
   1084  C         44.2089    4.2540    3.3500   CA 1084  GRA        0.000000
   1085  C         46.6649    1.4180    3.3500   CA 1085  GRA        0.000000
   1086  C         45.4369    2.1270    3.3500   CA 1086  GRA        0.000000
   1087  C         45.4369    3.5450    3.3500   CA 1087  GRA        0.000000
   1088  C         46.6649    4.2540    3.3500   CA 1088  GRA        0.000000
   1089  C         49.1210    1.4180    3.3500   CA 1089  GRA        0.000000
   1090  C         47.8929    2.1270    3.3500   CA 1090  GRA        0.000000
   1091  C         47.8929    3.5450    3.3500   CA 1091  GRA        0.000000
   1092  C         49.1210    4.2540    3.3500   CA 1092  GRA        0.000000
   1093  C          0.0000    5.6720    3.3500   CA 1093  GRA        0.000000
   1094  C         -1.2280    6.3810    3.3500   CA 1094  GRA        0.000000
   1095  C         -1.2280    7.7990    3.3500   CA 1095  GRA        0.000000
   1096  C          0.0000    8.5080    3.3500   CA 1096  GRA        0.000000
   1097  C          2.4560    5.6720    3.3500   CA 1097  GRA        0.000000
   1098  C          1.2280    6.3810    3.3500   CA 1098  GRA        0.000000
   1099  C          1.2280    7.7990    3.3500   CA 1099  GRA        0.000000
   1100  C          2.4560    8.5080    3.3500   CA 1100  GRA        0.000000
   1101  C          4.9121    5.6720    3.3500   CA 1101  GRA        0.000000
   1102  C          3.6841    6.3810    3.3500   CA 1102  GRA        0.000000
   1103  C          3.6841    7.7990    3.3500   CA 1103  GRA        0.000000
   1104  C          4.9121    8.5080    3.3500   CA 1104  GRA        0.000000
   1105  C          7.3681    5.6720    3.3500   CA 1105  GRA        0.000000
   1106  C          6.1401    6.3810    3.3500   CA 1106  GRA        0.000000
   1107  C          6.1401    7.7990    3.3500   CA 1107  GRA        0.000000
   1108  C          7.3681    8.5080    3.3500   CA 1108  GRA        0.000000
   1109  C          9.8242    5.6720    3.3500   CA 1109  GRA        0.000000
   1110  C          8.5962    6.3810    3.3500   CA 1110  GRA        0.000000
   1111  C          8.5962    7.7990    3.3500   CA 1111  GRA        0.000000
   1112  C          9.8242    8.5080    3.3500   CA 1112  GRA        0.000000
   1113  C         12.2802    5.6720    3.3500   CA 1113  GRA        0.000000
   1114  C         11.0522    6.3810    3.3500   CA 1114  GRA        0.000000
   1115  C         11.0522    7.7990    3.3500   CA 1115  GRA        0.000000
   1116  C         12.2802    8.5080    3.3500   CA 1116  GRA        0.000000
   1117  C         14.7363    5.6720    3.3500   CA 1117  GRA        0.000000
   1118  C         13.5083    6.3810    3.3500   CA 1118  GRA        0.000000
   1119  C         13.5083    7.7990    3.3500   CA 1119  GRA        0.000000
   1120  C         14.7363    8.5080    3.3500   CA 1120  GRA        0.000000
   1121  C         17.1923    5.6720    3.3500   CA 1121  GRA        0.000000
   1122  C         15.9643    6.3810    3.3500   CA 1122  GRA        0.000000
   1123  C         15.9643    7.7990    3.3500   CA 1123  GRA        0.000000
   1124  C         17.1923    8.5080    3.3500   CA 1124  GRA        0.000000
   1125  C         19.6484    5.6720    3.3500   CA 1125  GRA        0.000000
   1126  C         18.4204    6.3810    3.3500   CA 1126  GRA        0.000000
   1127  C         18.4204    7.7990    3.3500   CA 1127  GRA        0.000000
   1128  C         19.6484    8.5080    3.3500   CA 1128  GRA        0.000000
   1129  C         22.1044    5.6720    3.3500   CA 1129  GRA        0.000000
   1130  C         20.8764    6.3810    3.3500   CA 1130  GRA        0.000000
   1131  C         20.8764    7.7990    3.3500   CA 1131  GRA        0.000000
   1132  C         22.1044    8.5080    3.3500   CA 1132  GRA        0.000000
   1133  C         24.5605    5.6720    3.3500   CA 1133  GRA        0.000000
   1134  C         23.3325    6.3810    3.3500   CA 1134  GRA        0.000000
   1135  C         23.3325    7.7990    3.3500   CA 1135  GRA        0.000000
   1136  C         24.5605    8.5080    3.3500   CA 1136  GRA        0.000000
   1137  C         27.0165    5.6720    3.3500   CA 1137  GRA        0.000000
   1138  C         25.7885    6.3810    3.3500   CA 1138  GRA        0.000000
   1139  C         25.7885    7.7990    3.3500   CA 1139  GRA        0.000000
   1140  C         27.0165    8.5080    3.3500   CA 1140  GRA        0.000000
   1141  C         29.4726    5.6720    3.3500   CA 1141  GRA        0.000000
   1142  C         28.2446    6.3810    3.3500   CA 1142  GRA        0.000000
   1143  C         28.2446    7.7990    3.3500   CA 1143  GRA        0.000000
   1144  C         29.4726    8.5080    3.3500   CA 1144  GRA        0.000000
   1145  C         31.9286    5.6720    3.3500   CA 1145  GRA        0.000000
   1146  C         30.7006    6.3810    3.3500   CA 1146  GRA        0.000000
   1147  C         30.7006    7.7990    3.3500   CA 1147  GRA        0.000000
   1148  C         31.9286    8.5080    3.3500   CA 1148  GRA        0.000000
   1149  C         34.3847    5.6720    3.3500   CA 1149  GRA        0.000000
   1150  C         33.1566    6.3810    3.3500   CA 1150  GRA        0.000000
   1151  C         33.1566    7.7990    3.3500   CA 1151  GRA        0.000000
   1152  C         34.3847    8.5080    3.3500   CA 1152  GRA        0.000000
   1153  C         36.8407    5.6720    3.3500   CA 1153  GRA        0.000000
   1154  C         35.6127    6.3810    3.3500   CA 1154  GRA        0.000000
   1155  C         35.6127    7.7990    3.3500   CA 1155  GRA        0.000000
   1156  C         36.8407    8.5080    3.3500   CA 1156  GRA        0.000000
   1157  C         39.2968    5.6720    3.3500   CA 1157  GRA        0.000000
   1158  C         38.0687    6.3810    3.3500   CA 1158  GRA        0.000000
   1159  C         38.0687    7.7990    3.3500   CA 1159  GRA        0.000000
   1160  C         39.2968    8.5080    3.3500   CA 1160  GRA        0.000000
   1161  C         41.7528    5.6720    3.3500   CA 1161  GRA        0.000000
   1162  C         40.5248    6.3810    3.3500   CA 1162  GRA        0.000000
   1163  C         40.5248    7.7990    3.3500   CA 1163  GRA        0.000000
   1164  C         41.7528    8.5080    3.3500   CA 1164  GRA        0.000000
   1165  C         44.2089    5.6720    3.3500   CA 1165  GRA        0.000000
   1166  C         42.9808    6.3810    3.3500   CA 1166  GRA        0.000000
   1167  C         42.9808    7.7990    3.3500   CA 1167  GRA        0.000000
   1168  C         44.2089    8.5080    3.3500   CA 1168  GRA        0.000000
   1169  C         46.6649    5.6720    3.3500   CA 1169  GRA        0.000000
   1170  C         45.4369    6.3810    3.3500   CA 1170  GRA        0.000000
   1171  C         45.4369    7.7990    3.3500   CA 1171  GRA        0.000000
   1172  C         46.6649    8.5080    3.3500   CA 1172  GRA        0.000000
   1173  C         49.1210    5.6720    3.3500   CA 1173  GRA        0.000000
   1174  C         47.8929    6.3810    3.3500   CA 1174  GRA        0.000000
   1175  C         47.8929    7.7990    3.3500   CA 1175  GRA        0.000000
   1176  C         49.1210    8.5080    3.3500   CA 1176  GRA        0.000000
   1177  C          0.0000    9.9260    3.3500   CA 1177  GRA        0.000000
   1178  C         -1.2280   10.6350    3.3500   CA 1178  GRA        0.000000
   1179  C         -1.2280   12.0530    3.3500   CA 1179  GRA        0.000000
   1180  C          0.0000   12.7620    3.3500   CA 1180  GRA        0.000000
   1181  C          2.4560    9.9260    3.3500   CA 1181  GRA        0.000000
   1182  C          1.2280   10.6350    3.3500   CA 1182  GRA        0.000000
   1183  C          1.2280   12.0530    3.3500   CA 1183  GRA        0.000000
   1184  C          2.4560   12.7620    3.3500   CA 1184  GRA        0.000000
   1185  C          4.9121    9.9260    3.3500   CA 1185  GRA        0.000000
   1186  C          3.6841   10.6350    3.3500   CA 1186  GRA        0.000000
   1187  C          3.6841   12.0530    3.3500   CA 1187  GRA        0.000000
   1188  C          4.9121   12.7620    3.3500   CA 1188  GRA        0.000000
   1189  C          7.3681    9.9260    3.3500   CA 1189  GRA        0.000000
   1190  C          6.1401   10.6350    3.3500   CA 1190  GRA        0.000000
   1191  C          6.1401   12.0530    3.3500   CA 1191  GRA        0.000000
   1192  C          7.3681   12.7620    3.3500   CA 1192  GRA        0.000000
   1193  C          9.8242    9.9260    3.3500   CA 1193  GRA        0.000000
   1194  C          8.5962   10.6350    3.3500   CA 1194  GRA        0.000000
   1195  C          8.5962   12.0530    3.3500   CA 1195  GRA        0.000000
   1196  C          9.8242   12.7620    3.3500   CA 1196  GRA        0.000000
   1197  C         12.2802    9.9260    3.3500   CA 1197  GRA        0.000000
   1198  C         11.0522   10.6350    3.3500   CA 1198  GRA        0.000000
   1199  C         11.0522   12.0530    3.3500   CA 1199  GRA        0.000000
   1200  C         12.2802   12.7620    3.3500   CA 1200  GRA        0.000000
   1201  C         14.7363    9.9260    3.3500   CA 1201  GRA        0.000000
   1202  C         13.5083   10.6350    3.3500   CA 1202  GRA        0.000000
   1203  C         13.5083   12.0530    3.3500   CA 1203  GRA        0.000000
   1204  C         14.7363   12.7620    3.3500   CA 1204  GRA        0.000000
   1205  C         17.1923    9.9260    3.3500   CA 1205  GRA        0.000000
   1206  C         15.9643   10.6350    3.3500   CA 1206  GRA        0.000000
   1207  C         15.9643   12.0530    3.3500   CA 1207  GRA        0.000000
   1208  C         17.1923   12.7620    3.3500   CA 1208  GRA        0.000000
   1209  C         19.6484    9.9260    3.3500   CA 1209  GRA        0.000000
   1210  C         18.4204   10.6350    3.3500   CA 1210  GRA        0.000000
   1211  C         18.4204   12.0530    3.3500   CA 1211  GRA        0.000000
   1212  C         19.6484   12.7620    3.3500   CA 1212  GRA        0.000000
   1213  C         22.1044    9.9260    3.3500   CA 1213  GRA        0.000000
   1214  C         20.8764   10.6350    3.3500   CA 1214  GRA        0.000000
   1215  C         20.8764   12.0530    3.3500   CA 1215  GRA        0.000000
   1216  C         22.1044   12.7620    3.3500   CA 1216  GRA        0.000000
   1217  C         24.5605    9.9260    3.3500   CA 1217  GRA        0.000000
   1218  C         23.3325   10.6350    3.3500   CA 1218  GRA        0.000000
   1219  C         23.3325   12.0530    3.3500   CA 1219  GRA        0.000000
   1220  C         24.5605   12.7620    3.3500   CA 1220  GRA        0.000000
   1221  C         27.0165    9.9260    3.3500   CA 1221  GRA        0.000000
   1222  C         25.7885   10.6350    3.3500   CA 1222  GRA        0.000000
   1223  C         25.7885   12.0530    3.3500   CA 1223  GRA        0.000000
   1224  C         27.0165   12.7620    3.3500   CA 1224  GRA        0.000000
   1225  C         29.4726    9.9260    3.3500   CA 1225  GRA        0.000000
   1226  C         28.2446   10.6350    3.3500   CA 1226  GRA        0.000000
   1227  C         28.2446   12.0530    3.3500   CA 1227  GRA        0.000000
   1228  C         29.4726   12.7620    3.3500   CA 1228  GRA        0.000000
   1229  C         31.9286    9.9260    3.3500   CA 1229  GRA        0.000000
   1230  C         30.7006   10.6350    3.3500   CA 1230  GRA        0.000000
   1231  C         30.7006   12.0530    3.3500   CA 1231  GRA        0.000000
   1232  C         31.9286   12.7620    3.3500   CA 1232  GRA        0.000000
   1233  C         34.3847    9.9260    3.3500   CA 1233  GRA        0.000000
   1234  C         33.1566   10.6350    3.3500   CA 1234  GRA        0.000000
   1235  C         33.1566   12.0530    3.3500   CA 1235  GRA        0.000000
   1236  C         34.3847   12.7620    3.3500   CA 1236  GRA        0.000000
   1237  C         36.8407    9.9260    3.3500   CA 1237  GRA        0.000000
   1238  C         35.6127   10.6350    3.3500   CA 1238  GRA        0.000000
   1239  C         35.6127   12.0530    3.3500   CA 1239  GRA        0.000000
   1240  C         36.8407   12.7620    3.3500   CA 1240  GRA        0.000000
   1241  C         39.2968    9.9260    3.3500   CA 1241  GRA        0.000000
   1242  C         38.0687   10.6350    3.3500   CA 1242  GRA        0.000000
   1243  C         38.0687   12.0530    3.3500   CA 1243  GRA        0.000000
   1244  C         39.2968   12.7620    3.3500   CA 1244  GRA        0.000000
   1245  C         41.7528    9.9260    3.3500   CA 1245  GRA        0.000000
   1246  C         40.5248   10.6350    3.3500   CA 1246  GRA        0.000000
   1247  C         40.5248   12.0530    3.3500   CA 1247  GRA        0.000000
   1248  C         41.7528   12.7620    3.3500   CA 1248  GRA        0.000000
   1249  C         44.2089    9.9260    3.3500   CA 1249  GRA        0.000000
   1250  C         42.9808   10.6350    3.3500   CA 1250  GRA        0.000000
   1251  C         42.9808   12.0530    3.3500   CA 1251  GRA        0.000000
   1252  C         44.2089   12.7620    3.3500   CA 1252  GRA        0.000000
   1253  C         46.6649    9.9260    3.3500   CA 1253  GRA        0.000000
   1254  C         45.4369   10.6350    3.3500   CA 1254  GRA        0.000000
   1255  C         45.4369   12.0530    3.3500   CA 1255  GRA        0.000000
   1256  C         46.6649   12.7620    3.3500   CA 1256  GRA        0.000000
   1257  C         49.1210    9.9260    3.3500   CA 1257  GRA        0.000000
   1258  C         47.8929   10.6350    3.3500   CA 1258  GRA        0.000000
   1259  C         47.8929   12.0530    3.3500   CA 1259  GRA        0.000000
   1260  C         49.1210   12.7620    3.3500   CA 1260  GRA        0.000000
   1261  C          0.0000   14.1800    3.3500   CA 1261  GRA        0.000000
   1262  C         -1.2280   14.8890    3.3500   CA 1262  GRA        0.000000
   1263  C         -1.2280   16.3070    3.3500   CA 1263  GRA        0.000000
   1264  C          0.0000   17.0160    3.3500   CA 1264  GRA        0.000000
   1265  C          2.4560   14.1800    3.3500   CA 1265  GRA        0.000000
   1266  C          1.2280   14.8890    3.3500   CA 1266  GRA        0.000000
   1267  C          1.2280   16.3070    3.3500   CA 1267  GRA        0.000000
   1268  C          2.4560   17.0160    3.3500   CA 1268  GRA        0.000000
   1269  C          4.9121   14.1800    3.3500   CA 1269  GRA        0.000000
   1270  C          3.6841   14.8890    3.3500   CA 1270  GRA        0.000000
   1271  C          3.6841   16.3070    3.3500   CA 1271  GRA        0.000000
   1272  C          4.9121   17.0160    3.3500   CA 1272  GRA        0.000000
   1273  C          7.3681   14.1800    3.3500   CA 1273  GRA        0.000000
   1274  C          6.1401   14.8890    3.3500   CA 1274  GRA        0.000000
   1275  C          6.1401   16.3070    3.3500   CA 1275  GRA        0.000000
   1276  C          7.3681   17.0160    3.3500   CA 1276  GRA        0.000000
   1277  C          9.8242   14.1800    3.3500   CA 1277  GRA        0.000000
   1278  C          8.5962   14.8890    3.3500   CA 1278  GRA        0.000000
   1279  C          8.5962   16.3070    3.3500   CA 1279  GRA        0.000000
   1280  C          9.8242   17.0160    3.3500   CA 1280  GRA        0.000000
   1281  C         12.2802   14.1800    3.3500   CA 1281  GRA        0.000000
   1282  C         11.0522   14.8890    3.3500   CA 1282  GRA        0.000000
   1283  C         11.0522   16.3070    3.3500   CA 1283  GRA        0.000000
   1284  C         12.2802   17.0160    3.3500   CA 1284  GRA        0.000000
   1285  C         14.7363   14.1800    3.3500   CA 1285  GRA        0.000000
   1286  C         13.5083   14.8890    3.3500   CA 1286  GRA        0.000000
   1287  C         13.5083   16.3070    3.3500   CA 1287  GRA        0.000000
   1288  C         14.7363   17.0160    3.3500   CA 1288  GRA        0.000000
   1289  C         17.1923   14.1800    3.3500   CA 1289  GRA        0.000000
   1290  C         15.9643   14.8890    3.3500   CA 1290  GRA        0.000000
   1291  C         15.9643   16.3070    3.3500   CA 1291  GRA        0.000000
   1292  C         17.1923   17.0160    3.3500   CA 1292  GRA        0.000000
   1293  C         19.6484   14.1800    3.3500   CA 1293  GRA        0.000000
   1294  C         18.4204   14.8890    3.3500   CA 1294  GRA        0.000000
   1295  C         18.4204   16.3070    3.3500   CA 1295  GRA        0.000000
   1296  C         19.6484   17.0160    3.3500   CA 1296  GRA        0.000000
   1297  C         22.1044   14.1800    3.3500   CA 1297  GRA        0.000000
   1298  C         20.8764   14.8890    3.3500   CA 1298  GRA        0.000000
   1299  C         20.8764   16.3070    3.3500   CA 1299  GRA        0.000000
   1300  C         22.1044   17.0160    3.3500   CA 1300  GRA        0.000000
   1301  C         24.5605   14.1800    3.3500   CA 1301  GRA        0.000000
   1302  C         23.3325   14.8890    3.3500   CA 1302  GRA        0.000000
   1303  C         23.3325   16.3070    3.3500   CA 1303  GRA        0.000000
   1304  C         24.5605   17.0160    3.3500   CA 1304  GRA        0.000000
   1305  C         27.0165   14.1800    3.3500   CA 1305  GRA        0.000000
   1306  C         25.7885   14.8890    3.3500   CA 1306  GRA        0.000000
   1307  C         25.7885   16.3070    3.3500   CA 1307  GRA        0.000000
   1308  C         27.0165   17.0160    3.3500   CA 1308  GRA        0.000000
   1309  C         29.4726   14.1800    3.3500   CA 1309  GRA        0.000000
   1310  C         28.2446   14.8890    3.3500   CA 1310  GRA        0.000000
   1311  C         28.2446   16.3070    3.3500   CA 1311  GRA        0.000000
   1312  C         29.4726   17.0160    3.3500   CA 1312  GRA        0.000000
   1313  C         31.9286   14.1800    3.3500   CA 1313  GRA        0.000000
   1314  C         30.7006   14.8890    3.3500   CA 1314  GRA        0.000000
   1315  C         30.7006   16.3070    3.3500   CA 1315  GRA        0.000000
   1316  C         31.9286   17.0160    3.3500   CA 1316  GRA        0.000000
   1317  C         34.3847   14.1800    3.3500   CA 1317  GRA        0.000000
   1318  C         33.1566   14.8890    3.3500   CA 1318  GRA        0.000000
   1319  C         33.1566   16.3070    3.3500   CA 1319  GRA        0.000000
   1320  C         34.3847   17.0160    3.3500   CA 1320  GRA        0.000000
   1321  C         36.8407   14.1800    3.3500   CA 1321  GRA        0.000000
   1322  C         35.6127   14.8890    3.3500   CA 1322  GRA        0.000000
   1323  C         35.6127   16.3070    3.3500   CA 1323  GRA        0.000000
   1324  C         36.8407   17.0160    3.3500   CA 1324  GRA        0.000000
   1325  C         39.2968   14.1800    3.3500   CA 1325  GRA        0.000000
   1326  C         38.0687   14.8890    3.3500   CA 1326  GRA        0.000000
   1327  C         38.0687   16.3070    3.3500   CA 1327  GRA        0.000000
   1328  C         39.2968   17.0160    3.3500   CA 1328  GRA        0.000000
   1329  C         41.7528   14.1800    3.3500   CA 1329  GRA        0.000000
   1330  C         40.5248   14.8890    3.3500   CA 1330  GRA        0.000000
   1331  C         40.5248   16.3070    3.3500   CA 1331  GRA        0.000000
   1332  C         41.7528   17.0160    3.3500   CA 1332  GRA        0.000000
   1333  C         44.2089   14.1800    3.3500   CA 1333  GRA        0.000000
   1334  C         42.9808   14.8890    3.3500   CA 1334  GRA        0.000000
   1335  C         42.9808   16.3070    3.3500   CA 1335  GRA        0.000000
   1336  C         44.2089   17.0160    3.3500   CA 1336  GRA        0.000000
   1337  C         46.6649   14.1800    3.3500   CA 1337  GRA        0.000000
   1338  C         45.4369   14.8890    3.3500   CA 1338  GRA        0.000000
   1339  C         45.4369   16.3070    3.3500   CA 1339  GRA        0.000000
   1340  C         46.6649   17.0160    3.3500   CA 1340  GRA        0.000000
   1341  C         49.1210   14.1800    3.3500   CA 1341  GRA        0.000000
   1342  C         47.8929   14.8890    3.3500   CA 1342  GRA        0.000000
   1343  C         47.8929   16.3070    3.3500   CA 1343  GRA        0.000000
   1344  C         49.1210   17.0160    3.3500   CA 1344  GRA        0.000000
   1345  C          0.0000   18.4340    3.3500   CA 1345  GRA        0.000000
   1346  C         -1.2280   19.1430    3.3500   CA 1346  GRA        0.000000
   1347  C         -1.2280   20.5610    3.3500   CA 1347  GRA        0.000000
   1348  C          0.0000   21.2700    3.3500   CA 1348  GRA        0.000000
   1349  C          2.4560   18.4340    3.3500   CA 1349  GRA        0.000000
   1350  C          1.2280   19.1430    3.3500   CA 1350  GRA        0.000000
   1351  C          1.2280   20.5610    3.3500   CA 1351  GRA        0.000000
   1352  C          2.4560   21.2700    3.3500   CA 1352  GRA        0.000000
   1353  C          4.9121   18.4340    3.3500   CA 1353  GRA        0.000000
   1354  C          3.6841   19.1430    3.3500   CA 1354  GRA        0.000000
   1355  C          3.6841   20.5610    3.3500   CA 1355  GRA        0.000000
   1356  C          4.9121   21.2700    3.3500   CA 1356  GRA        0.000000
   1357  C          7.3681   18.4340    3.3500   CA 1357  GRA        0.000000
   1358  C          6.1401   19.1430    3.3500   CA 1358  GRA        0.000000
   1359  C          6.1401   20.5610    3.3500   CA 1359  GRA        0.000000
   1360  C          7.3681   21.2700    3.3500   CA 1360  GRA        0.000000
   1361  C          9.8242   18.4340    3.3500   CA 1361  GRA        0.000000
   1362  C          8.5962   19.1430    3.3500   CA 1362  GRA        0.000000
   1363  C          8.5962   20.5610    3.3500   CA 1363  GRA        0.000000
   1364  C          9.8242   21.2700    3.3500   CA 1364  GRA        0.000000
   1365  C         12.2802   18.4340    3.3500   CA 1365  GRA        0.000000
   1366  C         11.0522   19.1430    3.3500   CA 1366  GRA        0.000000
   1367  C         11.0522   20.5610    3.3500   CA 1367  GRA        0.000000
   1368  C         12.2802   21.2700    3.3500   CA 1368  GRA        0.000000
   1369  C         14.7363   18.4340    3.3500   CA 1369  GRA        0.000000
   1370  C         13.5083   19.1430    3.3500   CA 1370  GRA        0.000000
   1371  C         13.5083   20.5610    3.3500   CA 1371  GRA        0.000000
   1372  C         14.7363   21.2700    3.3500   CA 1372  GRA        0.000000
   1373  C         17.1923   18.4340    3.3500   CA 1373  GRA        0.000000
   1374  C         15.9643   19.1430    3.3500   CA 1374  GRA        0.000000
   1375  C         15.9643   20.5610    3.3500   CA 1375  GRA        0.000000
   1376  C         17.1923   21.2700    3.3500   CA 1376  GRA        0.000000
   1377  C         19.6484   18.4340    3.3500   CA 1377  GRA        0.000000
   1378  C         18.4204   19.1430    3.3500   CA 1378  GRA        0.000000
   1379  C         18.4204   20.5610    3.3500   CA 1379  GRA        0.000000
   1380  C         19.6484   21.2700    3.3500   CA 1380  GRA        0.000000
   1381  C         22.1044   18.4340    3.3500   CA 1381  GRA        0.000000
   1382  C         20.8764   19.1430    3.3500   CA 1382  GRA        0.000000
   1383  C         20.8764   20.5610    3.3500   CA 1383  GRA        0.000000
   1384  C         22.1044   21.2700    3.3500   CA 1384  GRA        0.000000
   1385  C         24.5605   18.4340    3.3500   CA 1385  GRA        0.000000
   1386  C         23.3325   19.1430    3.3500   CA 1386  GRA        0.000000
   1387  C         23.3325   20.5610    3.3500   CA 1387  GRA        0.000000
   1388  C         24.5605   21.2700    3.3500   CA 1388  GRA        0.000000
   1389  C         27.0165   18.4340    3.3500   CA 1389  GRA        0.000000
   1390  C         25.7885   19.1430    3.3500   CA 1390  GRA        0.000000
   1391  C         25.7885   20.5610    3.3500   CA 1391  GRA        0.000000
   1392  C         27.0165   21.2700    3.3500   CA 1392  GRA        0.000000
   1393  C         29.4726   18.4340    3.3500   CA 1393  GRA        0.000000
   1394  C         28.2446   19.1430    3.3500   CA 1394  GRA        0.000000
   1395  C         28.2446   20.5610    3.3500   CA 1395  GRA        0.000000
   1396  C         29.4726   21.2700    3.3500   CA 1396  GRA        0.000000
   1397  C         31.9286   18.4340    3.3500   CA 1397  GRA        0.000000
   1398  C         30.7006   19.1430    3.3500   CA 1398  GRA        0.000000
   1399  C         30.7006   20.5610    3.3500   CA 1399  GRA        0.000000
   1400  C         31.9286   21.2700    3.3500   CA 1400  GRA        0.000000
   1401  C         34.3847   18.4340    3.3500   CA 1401  GRA        0.000000
   1402  C         33.1566   19.1430    3.3500   CA 1402  GRA        0.000000
   1403  C         33.1566   20.5610    3.3500   CA 1403  GRA        0.000000
   1404  C         34.3847   21.2700    3.3500   CA 1404  GRA        0.000000
   1405  C         36.8407   18.4340    3.3500   CA 1405  GRA        0.000000
   1406  C         35.6127   19.1430    3.3500   CA 1406  GRA        0.000000
   1407  C         35.6127   20.5610    3.3500   CA 1407  GRA        0.000000
   1408  C         36.8407   21.2700    3.3500   CA 1408  GRA        0.000000
   1409  C         39.2968   18.4340    3.3500   CA 1409  GRA        0.000000
   1410  C         38.0687   19.1430    3.3500   CA 1410  GRA        0.000000
   1411  C         38.0687   20.5610    3.3500   CA 1411  GRA        0.000000
   1412  C         39.2968   21.2700    3.3500   CA 1412  GRA        0.000000
   1413  C         41.7528   18.4340    3.3500   CA 1413  GRA        0.000000
   1414  C         40.5248   19.1430    3.3500   CA 1414  GRA        0.000000
   1415  C         40.5248   20.5610    3.3500   CA 1415  GRA        0.000000
   1416  C         41.7528   21.2700    3.3500   CA 1416  GRA        0.000000
   1417  C         44.2089   18.4340    3.3500   CA 1417  GRA        0.000000
   1418  C         42.9808   19.1430    3.3500   CA 1418  GRA        0.000000
   1419  C         42.9808   20.5610    3.3500   CA 1419  GRA        0.000000
   1420  C         44.2089   21.2700    3.3500   CA 1420  GRA        0.000000
   1421  C         46.6649   18.4340    3.3500   CA 1421  GRA        0.000000
   1422  C         45.4369   19.1430    3.3500   CA 1422  GRA        0.000000
   1423  C         45.4369   20.5610    3.3500   CA 1423  GRA        0.000000
   1424  C         46.6649   21.2700    3.3500   CA 1424  GRA        0.000000
   1425  C         49.1210   18.4340    3.3500   CA 1425  GRA        0.000000
   1426  C         47.8929   19.1430    3.3500   CA 1426  GRA        0.000000
   1427  C         47.8929   20.5610    3.3500   CA 1427  GRA        0.000000
   1428  C         49.1210   21.2700    3.3500   CA 1428  GRA        0.000000
   1429  C          0.0000   22.6880    3.3500   CA 1429  GRA        0.000000
   1430  C         -1.2280   23.3970    3.3500   CA 1430  GRA        0.000000
   1431  C         -1.2280   24.8150    3.3500   CA 1431  GRA        0.000000
   1432  C          0.0000   25.5240    3.3500   CA 1432  GRA        0.000000
   1433  C          2.4560   22.6880    3.3500   CA 1433  GRA        0.000000
   1434  C          1.2280   23.3970    3.3500   CA 1434  GRA        0.000000
   1435  C          1.2280   24.8150    3.3500   CA 1435  GRA        0.000000
   1436  C          2.4560   25.5240    3.3500   CA 1436  GRA        0.000000
   1437  C          4.9121   22.6880    3.3500   CA 1437  GRA        0.000000
   1438  C          3.6841   23.3970    3.3500   CA 1438  GRA        0.000000
   1439  C          3.6841   24.8150    3.3500   CA 1439  GRA        0.000000
   1440  C          4.9121   25.5240    3.3500   CA 1440  GRA        0.000000
   1441  C          7.3681   22.6880    3.3500   CA 1441  GRA        0.000000
   1442  C          6.1401   23.3970    3.3500   CA 1442  GRA        0.000000
   1443  C          6.1401   24.8150    3.3500   CA 1443  GRA        0.000000
   1444  C          7.3681   25.5240    3.3500   CA 1444  GRA        0.000000
   1445  C          9.8242   22.6880    3.3500   CA 1445  GRA        0.000000
   1446  C          8.5962   23.3970    3.3500   CA 1446  GRA        0.000000
   1447  C          8.5962   24.8150    3.3500   CA 1447  GRA        0.000000
   1448  C          9.8242   25.5240    3.3500   CA 1448  GRA        0.000000
   1449  C         12.2802   22.6880    3.3500   CA 1449  GRA        0.000000
   1450  C         11.0522   23.3970    3.3500   CA 1450  GRA        0.000000
   1451  C         11.0522   24.8150    3.3500   CA 1451  GRA        0.000000
   1452  C         12.2802   25.5240    3.3500   CA 1452  GRA        0.000000
   1453  C         14.7363   22.6880    3.3500   CA 1453  GRA        0.000000
   1454  C         13.5083   23.3970    3.3500   CA 1454  GRA        0.000000
   1455  C         13.5083   24.8150    3.3500   CA 1455  GRA        0.000000
   1456  C         14.7363   25.5240    3.3500   CA 1456  GRA        0.000000
   1457  C         17.1923   22.6880    3.3500   CA 1457  GRA        0.000000
   1458  C         15.9643   23.3970    3.3500   CA 1458  GRA        0.000000
   1459  C         15.9643   24.8150    3.3500   CA 1459  GRA        0.000000
   1460  C         17.1923   25.5240    3.3500   CA 1460  GRA        0.000000
   1461  C         19.6484   22.6880    3.3500   CA 1461  GRA        0.000000
   1462  C         18.4204   23.3970    3.3500   CA 1462  GRA        0.000000
   1463  C         18.4204   24.8150    3.3500   CA 1463  GRA        0.000000
   1464  C         19.6484   25.5240    3.3500   CA 1464  GRA        0.000000
   1465  C         22.1044   22.6880    3.3500   CA 1465  GRA        0.000000
   1466  C         20.8764   23.3970    3.3500   CA 1466  GRA        0.000000
   1467  C         20.8764   24.8150    3.3500   CA 1467  GRA        0.000000
   1468  C         22.1044   25.5240    3.3500   CA 1468  GRA        0.000000
   1469  C         24.5605   22.6880    3.3500   CA 1469  GRA        0.000000
   1470  C         23.3325   23.3970    3.3500   CA 1470  GRA        0.000000
   1471  C         23.3325   24.8150    3.3500   CA 1471  GRA        0.000000
   1472  C         24.5605   25.5240    3.3500   CA 1472  GRA        0.000000
   1473  C         27.0165   22.6880    3.3500   CA 1473  GRA        0.000000
   1474  C         25.7885   23.3970    3.3500   CA 1474  GRA        0.000000
   1475  C         25.7885   24.8150    3.3500   CA 1475  GRA        0.000000
   1476  C         27.0165   25.5240    3.3500   CA 1476  GRA        0.000000
   1477  C         29.4726   22.6880    3.3500   CA 1477  GRA        0.000000
   1478  C         28.2446   23.3970    3.3500   CA 1478  GRA        0.000000
   1479  C         28.2446   24.8150    3.3500   CA 1479  GRA        0.000000
   1480  C         29.4726   25.5240    3.3500   CA 1480  GRA        0.000000
   1481  C         31.9286   22.6880    3.3500   CA 1481  GRA        0.000000
   1482  C         30.7006   23.3970    3.3500   CA 1482  GRA        0.000000
   1483  C         30.7006   24.8150    3.3500   CA 1483  GRA        0.000000
   1484  C         31.9286   25.5240    3.3500   CA 1484  GRA        0.000000
   1485  C         34.3847   22.6880    3.3500   CA 1485  GRA        0.000000
   1486  C         33.1566   23.3970    3.3500   CA 1486  GRA        0.000000
   1487  C         33.1566   24.8150    3.3500   CA 1487  GRA        0.000000
   1488  C         34.3847   25.5240    3.3500   CA 1488  GRA        0.000000
   1489  C         36.8407   22.6880    3.3500   CA 1489  GRA        0.000000
   1490  C         35.6127   23.3970    3.3500   CA 1490  GRA        0.000000
   1491  C         35.6127   24.8150    3.3500   CA 1491  GRA        0.000000
   1492  C         36.8407   25.5240    3.3500   CA 1492  GRA        0.000000
   1493  C         39.2968   22.6880    3.3500   CA 1493  GRA        0.000000
   1494  C         38.0687   23.3970    3.3500   CA 1494  GRA        0.000000
   1495  C         38.0687   24.8150    3.3500   CA 1495  GRA        0.000000
   1496  C         39.2968   25.5240    3.3500   CA 1496  GRA        0.000000
   1497  C         41.7528   22.6880    3.3500   CA 1497  GRA        0.000000
   1498  C         40.5248   23.3970    3.3500   CA 1498  GRA        0.000000
   1499  C         40.5248   24.8150    3.3500   CA 1499  GRA        0.000000
   1500  C         41.7528   25.5240    3.3500   CA 1500  GRA        0.000000
   1501  C         44.2089   22.6880    3.3500   CA 1501  GRA        0.000000
   1502  C         42.9808   23.3970    3.3500   CA 1502  GRA        0.000000
   1503  C         42.9808   24.8150    3.3500   CA 1503  GRA        0.000000
   1504  C         44.2089   25.5240    3.3500   CA 1504  GRA        0.000000
   1505  C         46.6649   22.6880    3.3500   CA 1505  GRA        0.000000
   1506  C         45.4369   23.3970    3.3500   CA 1506  GRA        0.000000
   1507  C         45.4369   24.8150    3.3500   CA 1507  GRA        0.000000
   1508  C         46.6649   25.5240    3.3500   CA 1508  GRA        0.000000
   1509  C         49.1210   22.6880    3.3500   CA 1509  GRA        0.000000
   1510  C         47.8929   23.3970    3.3500   CA 1510  GRA        0.000000
   1511  C         47.8929   24.8150    3.3500   CA 1511  GRA        0.000000
   1512  C         49.1210   25.5240    3.3500   CA 1512  GRA        0.000000
   1513  C          0.0000   26.9420    3.3500   CA 1513  GRA        0.000000
   1514  C         -1.2280   27.6510    3.3500   CA 1514  GRA        0.000000
   1515  C         -1.2280   29.0690    3.3500   CA 1515  GRA        0.000000
   1516  C          0.0000   29.7780    3.3500   CA 1516  GRA        0.000000
   1517  C          2.4560   26.9420    3.3500   CA 1517  GRA        0.000000
   1518  C          1.2280   27.6510    3.3500   CA 1518  GRA        0.000000
   1519  C          1.2280   29.0690    3.3500   CA 1519  GRA        0.000000
   1520  C          2.4560   29.7780    3.3500   CA 1520  GRA        0.000000
   1521  C          4.9121   26.9420    3.3500   CA 1521  GRA        0.000000
   1522  C          3.6841   27.6510    3.3500   CA 1522  GRA        0.000000
   1523  C          3.6841   29.0690    3.3500   CA 1523  GRA        0.000000
   1524  C          4.9121   29.7780    3.3500   CA 1524  GRA        0.000000
   1525  C          7.3681   26.9420    3.3500   CA 1525  GRA        0.000000
   1526  C          6.1401   27.6510    3.3500   CA 1526  GRA        0.000000
   1527  C          6.1401   29.0690    3.3500   CA 1527  GRA        0.000000
   1528  C          7.3681   29.7780    3.3500   CA 1528  GRA        0.000000
   1529  C          9.8242   26.9420    3.3500   CA 1529  GRA        0.000000
   1530  C          8.5962   27.6510    3.3500   CA 1530  GRA        0.000000
   1531  C          8.5962   29.0690    3.3500   CA 1531  GRA        0.000000
   1532  C          9.8242   29.7780    3.3500   CA 1532  GRA        0.000000
   1533  C         12.2802   26.9420    3.3500   CA 1533  GRA        0.000000
   1534  C         11.0522   27.6510    3.3500   CA 1534  GRA        0.000000
   1535  C         11.0522   29.0690    3.3500   CA 1535  GRA        0.000000
   1536  C         12.2802   29.7780    3.3500   CA 1536  GRA        0.000000
   1537  C         14.7363   26.9420    3.3500   CA 1537  GRA        0.000000
   1538  C         13.5083   27.6510    3.3500   CA 1538  GRA        0.000000
   1539  C         13.5083   29.0690    3.3500   CA 1539  GRA        0.000000
   1540  C         14.7363   29.7780    3.3500   CA 1540  GRA        0.000000
   1541  C         17.1923   26.9420    3.3500   CA 1541  GRA        0.000000
   1542  C         15.9643   27.6510    3.3500   CA 1542  GRA        0.000000
   1543  C         15.9643   29.0690    3.3500   CA 1543  GRA        0.000000
   1544  C         17.1923   29.7780    3.3500   CA 1544  GRA        0.000000
   1545  C         19.6484   26.9420    3.3500   CA 1545  GRA        0.000000
   1546  C         18.4204   27.6510    3.3500   CA 1546  GRA        0.000000
   1547  C         18.4204   29.0690    3.3500   CA 1547  GRA        0.000000
   1548  C         19.6484   29.7780    3.3500   CA 1548  GRA        0.000000
   1549  C         22.1044   26.9420    3.3500   CA 1549  GRA        0.000000
   1550  C         20.8764   27.6510    3.3500   CA 1550  GRA        0.000000
   1551  C         20.8764   29.0690    3.3500   CA 1551  GRA        0.000000
   1552  C         22.1044   29.7780    3.3500   CA 1552  GRA        0.000000
   1553  C         24.5605   26.9420    3.3500   CA 1553  GRA        0.000000
   1554  C         23.3325   27.6510    3.3500   CA 1554  GRA        0.000000
   1555  C         23.3325   29.0690    3.3500   CA 1555  GRA        0.000000
   1556  C         24.5605   29.7780    3.3500   CA 1556  GRA        0.000000
   1557  C         27.0165   26.9420    3.3500   CA 1557  GRA        0.000000
   1558  C         25.7885   27.6510    3.3500   CA 1558  GRA        0.000000
   1559  C         25.7885   29.0690    3.3500   CA 1559  GRA        0.000000
   1560  C         27.0165   29.7780    3.3500   CA 1560  GRA        0.000000
   1561  C         29.4726   26.9420    3.3500   CA 1561  GRA        0.000000
   1562  C         28.2446   27.6510    3.3500   CA 1562  GRA        0.000000
   1563  C         28.2446   29.0690    3.3500   CA 1563  GRA        0.000000
   1564  C         29.4726   29.7780    3.3500   CA 1564  GRA        0.000000
   1565  C         31.9286   26.9420    3.3500   CA 1565  GRA        0.000000
   1566  C         30.7006   27.6510    3.3500   CA 1566  GRA        0.000000
   1567  C         30.7006   29.0690    3.3500   CA 1567  GRA        0.000000
   1568  C         31.9286   29.7780    3.3500   CA 1568  GRA        0.000000
   1569  C         34.3847   26.9420    3.3500   CA 1569  GRA        0.000000
   1570  C         33.1566   27.6510    3.3500   CA 1570  GRA        0.000000
   1571  C         33.1566   29.0690    3.3500   CA 1571  GRA        0.000000
   1572  C         34.3847   29.7780    3.3500   CA 1572  GRA        0.000000
   1573  C         36.8407   26.9420    3.3500   CA 1573  GRA        0.000000
   1574  C         35.6127   27.6510    3.3500   CA 1574  GRA        0.000000
   1575  C         35.6127   29.0690    3.3500   CA 1575  GRA        0.000000
   1576  C         36.8407   29.7780    3.3500   CA 1576  GRA        0.000000
   1577  C         39.2968   26.9420    3.3500   CA 1577  GRA        0.000000
   1578  C         38.0687   27.6510    3.3500   CA 1578  GRA        0.000000
   1579  C         38.0687   29.0690    3.3500   CA 1579  GRA        0.000000
   1580  C         39.2968   29.7780    3.3500   CA 1580  GRA        0.000000
   1581  C         41.7528   26.9420    3.3500   CA 1581  GRA        0.000000
   1582  C         40.5248   27.6510    3.3500   CA 1582  GRA        0.000000
   1583  C         40.5248   29.0690    3.3500   CA 1583  GRA        0.000000
   1584  C         41.7528   29.7780    3.3500   CA 1584  GRA        0.000000
   1585  C         44.2089   26.9420    3.3500   CA 1585  GRA        0.000000
   1586  C         42.9808   27.6510    3.3500   CA 1586  GRA        0.000000
   1587  C         42.9808   29.0690    3.3500   CA 1587  GRA        0.000000
   1588  C         44.2089   29.7780    3.3500   CA 1588  GRA        0.000000
   1589  C         46.6649   26.9420    3.3500   CA 1589  GRA        0.000000
   1590  C         45.4369   27.6510    3.3500   CA 1590  GRA        0.000000
   1591  C         45.4369   29.0690    3.3500   CA 1591  GRA        0.000000
   1592  C         46.6649   29.7780    3.3500   CA 1592  GRA        0.000000
   1593  C         49.1210   26.9420    3.3500   CA 1593  GRA        0.000000
   1594  C         47.8929   27.6510    3.3500   CA 1594  GRA        0.000000
   1595  C         47.8929   29.0690    3.3500   CA 1595  GRA        0.000000
   1596  C         49.1210   29.7780    3.3500   CA 1596  GRA        0.000000
   1597  C          0.0000   31.1960    3.3500   CA 1597  GRA        0.000000
   1598  C         -1.2280   31.9050    3.3500   CA 1598  GRA        0.000000
   1599  C         -1.2280   33.3230    3.3500   CA 1599  GRA        0.000000
   1600  C          0.0000   34.0320    3.3500   CA 1600  GRA        0.000000
   1601  C          2.4560   31.1960    3.3500   CA 1601  GRA        0.000000
   1602  C          1.2280   31.9050    3.3500   CA 1602  GRA        0.000000
   1603  C          1.2280   33.3230    3.3500   CA 1603  GRA        0.000000
   1604  C          2.4560   34.0320    3.3500   CA 1604  GRA        0.000000
   1605  C          4.9121   31.1960    3.3500   CA 1605  GRA        0.000000
   1606  C          3.6841   31.9050    3.3500   CA 1606  GRA        0.000000
   1607  C          3.6841   33.3230    3.3500   CA 1607  GRA        0.000000
   1608  C          4.9121   34.0320    3.3500   CA 1608  GRA        0.000000
   1609  C          7.3681   31.1960    3.3500   CA 1609  GRA        0.000000
   1610  C          6.1401   31.9050    3.3500   CA 1610  GRA        0.000000
   1611  C          6.1401   33.3230    3.3500   CA 1611  GRA        0.000000
   1612  C          7.3681   34.0320    3.3500   CA 1612  GRA        0.000000
   1613  C          9.8242   31.1960    3.3500   CA 1613  GRA        0.000000
   1614  C          8.5962   31.9050    3.3500   CA 1614  GRA        0.000000
   1615  C          8.5962   33.3230    3.3500   CA 1615  GRA        0.000000
   1616  C          9.8242   34.0320    3.3500   CA 1616  GRA        0.000000
   1617  C         12.2802   31.1960    3.3500   CA 1617  GRA        0.000000
   1618  C         11.0522   31.9050    3.3500   CA 1618  GRA        0.000000
   1619  C         11.0522   33.3230    3.3500   CA 1619  GRA        0.000000
   1620  C         12.2802   34.0320    3.3500   CA 1620  GRA        0.000000
   1621  C         14.7363   31.1960    3.3500   CA 1621  GRA        0.000000
   1622  C         13.5083   31.9050    3.3500   CA 1622  GRA        0.000000
   1623  C         13.5083   33.3230    3.3500   CA 1623  GRA        0.000000
   1624  C         14.7363   34.0320    3.3500   CA 1624  GRA        0.000000
   1625  C         17.1923   31.1960    3.3500   CA 1625  GRA        0.000000
   1626  C         15.9643   31.9050    3.3500   CA 1626  GRA        0.000000
   1627  C         15.9643   33.3230    3.3500   CA 1627  GRA        0.000000
   1628  C         17.1923   34.0320    3.3500   CA 1628  GRA        0.000000
   1629  C         19.6484   31.1960    3.3500   CA 1629  GRA        0.000000
   1630  C         18.4204   31.9050    3.3500   CA 1630  GRA        0.000000
   1631  C         18.4204   33.3230    3.3500   CA 1631  GRA        0.000000
   1632  C         19.6484   34.0320    3.3500   CA 1632  GRA        0.000000
   1633  C         22.1044   31.1960    3.3500   CA 1633  GRA        0.000000
   1634  C         20.8764   31.9050    3.3500   CA 1634  GRA        0.000000
   1635  C         20.8764   33.3230    3.3500   CA 1635  GRA        0.000000
   1636  C         22.1044   34.0320    3.3500   CA 1636  GRA        0.000000
   1637  C         24.5605   31.1960    3.3500   CA 1637  GRA        0.000000
   1638  C         23.3325   31.9050    3.3500   CA 1638  GRA        0.000000
   1639  C         23.3325   33.3230    3.3500   CA 1639  GRA        0.000000
   1640  C         24.5605   34.0320    3.3500   CA 1640  GRA        0.000000
   1641  C         27.0165   31.1960    3.3500   CA 1641  GRA        0.000000
   1642  C         25.7885   31.9050    3.3500   CA 1642  GRA        0.000000
   1643  C         25.7885   33.3230    3.3500   CA 1643  GRA        0.000000
   1644  C         27.0165   34.0320    3.3500   CA 1644  GRA        0.000000
   1645  C         29.4726   31.1960    3.3500   CA 1645  GRA        0.000000
   1646  C         28.2446   31.9050    3.3500   CA 1646  GRA        0.000000
   1647  C         28.2446   33.3230    3.3500   CA 1647  GRA        0.000000
   1648  C         29.4726   34.0320    3.3500   CA 1648  GRA        0.000000
   1649  C         31.9286   31.1960    3.3500   CA 1649  GRA        0.000000
   1650  C         30.7006   31.9050    3.3500   CA 1650  GRA        0.000000
   1651  C         30.7006   33.3230    3.3500   CA 1651  GRA        0.000000
   1652  C         31.9286   34.0320    3.3500   CA 1652  GRA        0.000000
   1653  C         34.3847   31.1960    3.3500   CA 1653  GRA        0.000000
   1654  C         33.1566   31.9050    3.3500   CA 1654  GRA        0.000000
   1655  C         33.1566   33.3230    3.3500   CA 1655  GRA        0.000000
   1656  C         34.3847   34.0320    3.3500   CA 1656  GRA        0.000000
   1657  C         36.8407   31.1960    3.3500   CA 1657  GRA        0.000000
   1658  C         35.6127   31.9050    3.3500   CA 1658  GRA        0.000000
   1659  C         35.6127   33.3230    3.3500   CA 1659  GRA        0.000000
   1660  C         36.8407   34.0320    3.3500   CA 1660  GRA        0.000000
   1661  C         39.2968   31.1960    3.3500   CA 1661  GRA        0.000000
   1662  C         38.0687   31.9050    3.3500   CA 1662  GRA        0.000000
   1663  C         38.0687   33.3230    3.3500   CA 1663  GRA        0.000000
   1664  C         39.2968   34.0320    3.3500   CA 1664  GRA        0.000000
   1665  C         41.7528   31.1960    3.3500   CA 1665  GRA        0.000000
   1666  C         40.5248   31.9050    3.3500   CA 1666  GRA        0.000000
   1667  C         40.5248   33.3230    3.3500   CA 1667  GRA        0.000000
   1668  C         41.7528   34.0320    3.3500   CA 1668  GRA        0.000000
   1669  C         44.2089   31.1960    3.3500   CA 1669  GRA        0.000000
   1670  C         42.9808   31.9050    3.3500   CA 1670  GRA        0.000000
   1671  C         42.9808   33.3230    3.3500   CA 1671  GRA        0.000000
   1672  C         44.2089   34.0320    3.3500   CA 1672  GRA        0.000000
   1673  C         46.6649   31.1960    3.3500   CA 1673  GRA        0.000000
   1674  C         45.4369   31.9050    3.3500   CA 1674  GRA        0.000000
   1675  C         45.4369   33.3230    3.3500   CA 1675  GRA        0.000000
   1676  C         46.6649   34.0320    3.3500   CA 1676  GRA        0.000000
   1677  C         49.1210   31.1960    3.3500   CA 1677  GRA        0.000000
   1678  C         47.8929   31.9050    3.3500   CA 1678  GRA        0.000000
   1679  C         47.8929   33.3230    3.3500   CA 1679  GRA        0.000000
   1680  C         49.1210   34.0320    3.3500   CA 1680  GRA        0.000000
   1681  C          0.0000   35.4500    3.3500   CA 1681  GRA        0.000000
   1682  C         -1.2280   36.1590    3.3500   CA 1682  GRA        0.000000
   1683  C         -1.2280   37.5770    3.3500   CA 1683  GRA        0.000000
   1684  C          0.0000   38.2860    3.3500   CA 1684  GRA        0.000000
   1685  C          2.4560   35.4500    3.3500   CA 1685  GRA        0.000000
   1686  C          1.2280   36.1590    3.3500   CA 1686  GRA        0.000000
   1687  C          1.2280   37.5770    3.3500   CA 1687  GRA        0.000000
   1688  C          2.4560   38.2860    3.3500   CA 1688  GRA        0.000000
   1689  C          4.9121   35.4500    3.3500   CA 1689  GRA        0.000000
   1690  C          3.6841   36.1590    3.3500   CA 1690  GRA        0.000000
   1691  C          3.6841   37.5770    3.3500   CA 1691  GRA        0.000000
   1692  C          4.9121   38.2860    3.3500   CA 1692  GRA        0.000000
   1693  C          7.3681   35.4500    3.3500   CA 1693  GRA        0.000000
   1694  C          6.1401   36.1590    3.3500   CA 1694  GRA        0.000000
   1695  C          6.1401   37.5770    3.3500   CA 1695  GRA        0.000000
   1696  C          7.3681   38.2860    3.3500   CA 1696  GRA        0.000000
   1697  C          9.8242   35.4500    3.3500   CA 1697  GRA        0.000000
   1698  C          8.5962   36.1590    3.3500   CA 1698  GRA        0.000000
   1699  C          8.5962   37.5770    3.3500   CA 1699  GRA        0.000000
   1700  C          9.8242   38.2860    3.3500   CA 1700  GRA        0.000000
   1701  C         12.2802   35.4500    3.3500   CA 1701  GRA        0.000000
   1702  C         11.0522   36.1590    3.3500   CA 1702  GRA        0.000000
   1703  C         11.0522   37.5770    3.3500   CA 1703  GRA        0.000000
   1704  C         12.2802   38.2860    3.3500   CA 1704  GRA        0.000000
   1705  C         14.7363   35.4500    3.3500   CA 1705  GRA        0.000000
   1706  C         13.5083   36.1590    3.3500   CA 1706  GRA        0.000000
   1707  C         13.5083   37.5770    3.3500   CA 1707  GRA        0.000000
   1708  C         14.7363   38.2860    3.3500   CA 1708  GRA        0.000000
   1709  C         17.1923   35.4500    3.3500   CA 1709  GRA        0.000000
   1710  C         15.9643   36.1590    3.3500   CA 1710  GRA        0.000000
   1711  C         15.9643   37.5770    3.3500   CA 1711  GRA        0.000000
   1712  C         17.1923   38.2860    3.3500   CA 1712  GRA        0.000000
   1713  C         19.6484   35.4500    3.3500   CA 1713  GRA        0.000000
   1714  C         18.4204   36.1590    3.3500   CA 1714  GRA        0.000000
   1715  C         18.4204   37.5770    3.3500   CA 1715  GRA        0.000000
   1716  C         19.6484   38.2860    3.3500   CA 1716  GRA        0.000000
   1717  C         22.1044   35.4500    3.3500   CA 1717  GRA        0.000000
   1718  C         20.8764   36.1590    3.3500   CA 1718  GRA        0.000000
   1719  C         20.8764   37.5770    3.3500   CA 1719  GRA        0.000000
   1720  C         22.1044   38.2860    3.3500   CA 1720  GRA        0.000000
   1721  C         24.5605   35.4500    3.3500   CA 1721  GRA        0.000000
   1722  C         23.3325   36.1590    3.3500   CA 1722  GRA        0.000000
   1723  C         23.3325   37.5770    3.3500   CA 1723  GRA        0.000000
   1724  C         24.5605   38.2860    3.3500   CA 1724  GRA        0.000000
   1725  C         27.0165   35.4500    3.3500   CA 1725  GRA        0.000000
   1726  C         25.7885   36.1590    3.3500   CA 1726  GRA        0.000000
   1727  C         25.7885   37.5770    3.3500   CA 1727  GRA        0.000000
   1728  C         27.0165   38.2860    3.3500   CA 1728  GRA        0.000000
   1729  C         29.4726   35.4500    3.3500   CA 1729  GRA        0.000000
   1730  C         28.2446   36.1590    3.3500   CA 1730  GRA        0.000000
   1731  C         28.2446   37.5770    3.3500   CA 1731  GRA        0.000000
   1732  C         29.4726   38.2860    3.3500   CA 1732  GRA        0.000000
   1733  C         31.9286   35.4500    3.3500   CA 1733  GRA        0.000000
   1734  C         30.7006   36.1590    3.3500   CA 1734  GRA        0.000000
   1735  C         30.7006   37.5770    3.3500   CA 1735  GRA        0.000000
   1736  C         31.9286   38.2860    3.3500   CA 1736  GRA        0.000000
   1737  C         34.3847   35.4500    3.3500   CA 1737  GRA        0.000000
   1738  C         33.1566   36.1590    3.3500   CA 1738  GRA        0.000000
   1739  C         33.1566   37.5770    3.3500   CA 1739  GRA        0.000000
   1740  C         34.3847   38.2860    3.3500   CA 1740  GRA        0.000000
   1741  C         36.8407   35.4500    3.3500   CA 1741  GRA        0.000000
   1742  C         35.6127   36.1590    3.3500   CA 1742  GRA        0.000000
   1743  C         35.6127   37.5770    3.3500   CA 1743  GRA        0.000000
   1744  C         36.8407   38.2860    3.3500   CA 1744  GRA        0.000000
   1745  C         39.2968   35.4500    3.3500   CA 1745  GRA        0.000000
   1746  C         38.0687   36.1590    3.3500   CA 1746  GRA        0.000000
   1747  C         38.0687   37.5770    3.3500   CA 1747  GRA        0.000000
   1748  C         39.2968   38.2860    3.3500   CA 1748  GRA        0.000000
   1749  C         41.7528   35.4500    3.3500   CA 1749  GRA        0.000000
   1750  C         40.5248   36.1590    3.3500   CA 1750  GRA        0.000000
   1751  C         40.5248   37.5770    3.3500   CA 1751  GRA        0.000000
   1752  C         41.7528   38.2860    3.3500   CA 1752  GRA        0.000000
   1753  C         44.2089   35.4500    3.3500   CA 1753  GRA        0.000000
   1754  C         42.9808   36.1590    3.3500   CA 1754  GRA        0.000000
   1755  C         42.9808   37.5770    3.3500   CA 1755  GRA        0.000000
   1756  C         44.2089   38.2860    3.3500   CA 1756  GRA        0.000000
   1757  C         46.6649   35.4500    3.3500   CA 1757  GRA        0.000000
   1758  C         45.4369   36.1590    3.3500   CA 1758  GRA        0.000000
   1759  C         45.4369   37.5770    3.3500   CA 1759  GRA        0.000000
   1760  C         46.6649   38.2860    3.3500   CA 1760  GRA        0.000000
   1761  C         49.1210   35.4500    3.3500   CA 1761  GRA        0.000000
   1762  C         47.8929   36.1590    3.3500   CA 1762  GRA        0.000000
   1763  C         47.8929   37.5770    3.3500   CA 1763  GRA        0.000000
   1764  C         49.1210   38.2860    3.3500   CA 1764  GRA        0.000000
   1765  C          0.0000   39.7040    3.3500   CA 1765  GRA        0.000000
   1766  C         -1.2280   40.4130    3.3500   CA 1766  GRA        0.000000
   1767  C         -1.2280   41.8310    3.3500   CA 1767  GRA        0.000000
   1768  C          0.0000   42.5400    3.3500   CA 1768  GRA        0.000000
   1769  C          2.4560   39.7040    3.3500   CA 1769  GRA        0.000000
   1770  C          1.2280   40.4130    3.3500   CA 1770  GRA        0.000000
   1771  C          1.2280   41.8310    3.3500   CA 1771  GRA        0.000000
   1772  C          2.4560   42.5400    3.3500   CA 1772  GRA        0.000000
   1773  C          4.9121   39.7040    3.3500   CA 1773  GRA        0.000000
   1774  C          3.6841   40.4130    3.3500   CA 1774  GRA        0.000000
   1775  C          3.6841   41.8310    3.3500   CA 1775  GRA        0.000000
   1776  C          4.9121   42.5400    3.3500   CA 1776  GRA        0.000000
   1777  C          7.3681   39.7040    3.3500   CA 1777  GRA        0.000000
   1778  C          6.1401   40.4130    3.3500   CA 1778  GRA        0.000000
   1779  C          6.1401   41.8310    3.3500   CA 1779  GRA        0.000000
   1780  C          7.3681   42.5400    3.3500   CA 1780  GRA        0.000000
   1781  C          9.8242   39.7040    3.3500   CA 1781  GRA        0.000000
   1782  C          8.5962   40.4130    3.3500   CA 1782  GRA        0.000000
   1783  C          8.5962   41.8310    3.3500   CA 1783  GRA        0.000000
   1784  C          9.8242   42.5400    3.3500   CA 1784  GRA        0.000000
   1785  C         12.2802   39.7040    3.3500   CA 1785  GRA        0.000000
   1786  C         11.0522   40.4130    3.3500   CA 1786  GRA        0.000000
   1787  C         11.0522   41.8310    3.3500   CA 1787  GRA        0.000000
   1788  C         12.2802   42.5400    3.3500   CA 1788  GRA        0.000000
   1789  C         14.7363   39.7040    3.3500   CA 1789  GRA        0.000000
   1790  C         13.5083   40.4130    3.3500   CA 1790  GRA        0.000000
   1791  C         13.5083   41.8310    3.3500   CA 1791  GRA        0.000000
   1792  C         14.7363   42.5400    3.3500   CA 1792  GRA        0.000000
   1793  C         17.1923   39.7040    3.3500   CA 1793  GRA        0.000000
   1794  C         15.9643   40.4130    3.3500   CA 1794  GRA        0.000000
   1795  C         15.9643   41.8310    3.3500   CA 1795  GRA        0.000000
   1796  C         17.1923   42.5400    3.3500   CA 1796  GRA        0.000000
   1797  C         19.6484   39.7040    3.3500   CA 1797  GRA        0.000000
   1798  C         18.4204   40.4130    3.3500   CA 1798  GRA        0.000000
   1799  C         18.4204   41.8310    3.3500   CA 1799  GRA        0.000000
   1800  C         19.6484   42.5400    3.3500   CA 1800  GRA        0.000000
   1801  C         22.1044   39.7040    3.3500   CA 1801  GRA        0.000000
   1802  C         20.8764   40.4130    3.3500   CA 1802  GRA        0.000000
   1803  C         20.8764   41.8310    3.3500   CA 1803  GRA        0.000000
   1804  C         22.1044   42.5400    3.3500   CA 1804  GRA        0.000000
   1805  C         24.5605   39.7040    3.3500   CA 1805  GRA        0.000000
   1806  C         23.3325   40.4130    3.3500   CA 1806  GRA        0.000000
   1807  C         23.3325   41.8310    3.3500   CA 1807  GRA        0.000000
   1808  C         24.5605   42.5400    3.3500   CA 1808  GRA        0.000000
   1809  C         27.0165   39.7040    3.3500   CA 1809  GRA        0.000000
   1810  C         25.7885   40.4130    3.3500   CA 1810  GRA        0.000000
   1811  C         25.7885   41.8310    3.3500   CA 1811  GRA        0.000000
   1812  C         27.0165   42.5400    3.3500   CA 1812  GRA        0.000000
   1813  C         29.4726   39.7040    3.3500   CA 1813  GRA        0.000000
   1814  C         28.2446   40.4130    3.3500   CA 1814  GRA        0.000000
   1815  C         28.2446   41.8310    3.3500   CA 1815  GRA        0.000000
   1816  C         29.4726   42.5400    3.3500   CA 1816  GRA        0.000000
   1817  C         31.9286   39.7040    3.3500   CA 1817  GRA        0.000000
   1818  C         30.7006   40.4130    3.3500   CA 1818  GRA        0.000000
   1819  C         30.7006   41.8310    3.3500   CA 1819  GRA        0.000000
   1820  C         31.9286   42.5400    3.3500   CA 1820  GRA        0.000000
   1821  C         34.3847   39.7040    3.3500   CA 1821  GRA        0.000000
   1822  C         33.1566   40.4130    3.3500   CA 1822  GRA        0.000000
   1823  C         33.1566   41.8310    3.3500   CA 1823  GRA        0.000000
   1824  C         34.3847   42.5400    3.3500   CA 1824  GRA        0.000000
   1825  C         36.8407   39.7040    3.3500   CA 1825  GRA        0.000000
   1826  C         35.6127   40.4130    3.3500   CA 1826  GRA        0.000000
   1827  C         35.6127   41.8310    3.3500   CA 1827  GRA        0.000000
   1828  C         36.8407   42.5400    3.3500   CA 1828  GRA        0.000000
   1829  C         39.2968   39.7040    3.3500   CA 1829  GRA        0.000000
   1830  C         38.0687   40.4130    3.3500   CA 1830  GRA        0.000000
   1831  C         38.0687   41.8310    3.3500   CA 1831  GRA        0.000000
   1832  C         39.2968   42.5400    3.3500   CA 1832  GRA        0.000000
   1833  C         41.7528   39.7040    3.3500   CA 1833  GRA        0.000000
   1834  C         40.5248   40.4130    3.3500   CA 1834  GRA        0.000000
   1835  C         40.5248   41.8310    3.3500   CA 1835  GRA        0.000000
   1836  C         41.7528   42.5400    3.3500   CA 1836  GRA        0.000000
   1837  C         44.2089   39.7040    3.3500   CA 1837  GRA        0.000000
   1838  C         42.9808   40.4130    3.3500   CA 1838  GRA        0.000000
   1839  C         42.9808   41.8310    3.3500   CA 1839  GRA        0.000000
   1840  C         44.2089   42.5400    3.3500   CA 1840  GRA        0.000000
   1841  C         46.6649   39.7040    3.3500   CA 1841  GRA        0.000000
   1842  C         45.4369   40.4130    3.3500   CA 1842  GRA        0.000000
   1843  C         45.4369   41.8310    3.3500   CA 1843  GRA        0.000000
   1844  C         46.6649   42.5400    3.3500   CA 1844  GRA        0.000000
   1845  C         49.1210   39.7040    3.3500   CA 1845  GRA        0.000000
   1846  C         47.8929   40.4130    3.3500   CA 1846  GRA        0.000000
   1847  C         47.8929   41.8310    3.3500   CA 1847  GRA        0.000000
   1848  C         49.1210   42.5400    3.3500   CA 1848  GRA        0.000000
   1849  C          0.0000   43.9580    3.3500   CA 1849  GRA        0.000000
   1850  C         -1.2280   44.6670    3.3500   CA 1850  GRA        0.000000
   1851  C         -1.2280   46.0850    3.3500   CA 1851  GRA        0.000000
   1852  C          0.0000   46.7940    3.3500   CA 1852  GRA        0.000000
   1853  C          2.4560   43.9580    3.3500   CA 1853  GRA        0.000000
   1854  C          1.2280   44.6670    3.3500   CA 1854  GRA        0.000000
   1855  C          1.2280   46.0850    3.3500   CA 1855  GRA        0.000000
   1856  C          2.4560   46.7940    3.3500   CA 1856  GRA        0.000000
   1857  C          4.9121   43.9580    3.3500   CA 1857  GRA        0.000000
   1858  C          3.6841   44.6670    3.3500   CA 1858  GRA        0.000000
   1859  C          3.6841   46.0850    3.3500   CA 1859  GRA        0.000000
   1860  C          4.9121   46.7940    3.3500   CA 1860  GRA        0.000000
   1861  C          7.3681   43.9580    3.3500   CA 1861  GRA        0.000000
   1862  C          6.1401   44.6670    3.3500   CA 1862  GRA        0.000000
   1863  C          6.1401   46.0850    3.3500   CA 1863  GRA        0.000000
   1864  C          7.3681   46.7940    3.3500   CA 1864  GRA        0.000000
   1865  C          9.8242   43.9580    3.3500   CA 1865  GRA        0.000000
   1866  C          8.5962   44.6670    3.3500   CA 1866  GRA        0.000000
   1867  C          8.5962   46.0850    3.3500   CA 1867  GRA        0.000000
   1868  C          9.8242   46.7940    3.3500   CA 1868  GRA        0.000000
   1869  C         12.2802   43.9580    3.3500   CA 1869  GRA        0.000000
   1870  C         11.0522   44.6670    3.3500   CA 1870  GRA        0.000000
   1871  C         11.0522   46.0850    3.3500   CA 1871  GRA        0.000000
   1872  C         12.2802   46.7940    3.3500   CA 1872  GRA        0.000000
   1873  C         14.7363   43.9580    3.3500   CA 1873  GRA        0.000000
   1874  C         13.5083   44.6670    3.3500   CA 1874  GRA        0.000000
   1875  C         13.5083   46.0850    3.3500   CA 1875  GRA        0.000000
   1876  C         14.7363   46.7940    3.3500   CA 1876  GRA        0.000000
   1877  C         17.1923   43.9580    3.3500   CA 1877  GRA        0.000000
   1878  C         15.9643   44.6670    3.3500   CA 1878  GRA        0.000000
   1879  C         15.9643   46.0850    3.3500   CA 1879  GRA        0.000000
   1880  C         17.1923   46.7940    3.3500   CA 1880  GRA        0.000000
   1881  C         19.6484   43.9580    3.3500   CA 1881  GRA        0.000000
   1882  C         18.4204   44.6670    3.3500   CA 1882  GRA        0.000000
   1883  C         18.4204   46.0850    3.3500   CA 1883  GRA        0.000000
   1884  C         19.6484   46.7940    3.3500   CA 1884  GRA        0.000000
   1885  C         22.1044   43.9580    3.3500   CA 1885  GRA        0.000000
   1886  C         20.8764   44.6670    3.3500   CA 1886  GRA        0.000000
   1887  C         20.8764   46.0850    3.3500   CA 1887  GRA        0.000000
   1888  C         22.1044   46.7940    3.3500   CA 1888  GRA        0.000000
   1889  C         24.5605   43.9580    3.3500   CA 1889  GRA        0.000000
   1890  C         23.3325   44.6670    3.3500   CA 1890  GRA        0.000000
   1891  C         23.3325   46.0850    3.3500   CA 1891  GRA        0.000000
   1892  C         24.5605   46.7940    3.3500   CA 1892  GRA        0.000000
   1893  C         27.0165   43.9580    3.3500   CA 1893  GRA        0.000000
   1894  C         25.7885   44.6670    3.3500   CA 1894  GRA        0.000000
   1895  C         25.7885   46.0850    3.3500   CA 1895  GRA        0.000000
   1896  C         27.0165   46.7940    3.3500   CA 1896  GRA        0.000000
   1897  C         29.4726   43.9580    3.3500   CA 1897  GRA        0.000000
   1898  C         28.2446   44.6670    3.3500   CA 1898  GRA        0.000000
   1899  C         28.2446   46.0850    3.3500   CA 1899  GRA        0.000000
   1900  C         29.4726   46.7940    3.3500   CA 1900  GRA        0.000000
   1901  C         31.9286   43.9580    3.3500   CA 1901  GRA        0.000000
   1902  C         30.7006   44.6670    3.3500   CA 1902  GRA        0.000000
   1903  C         30.7006   46.0850    3.3500   CA 1903  GRA        0.000000
   1904  C         31.9286   46.7940    3.3500   CA 1904  GRA        0.000000
   1905  C         34.3847   43.9580    3.3500   CA 1905  GRA        0.000000
   1906  C         33.1566   44.6670    3.3500   CA 1906  GRA        0.000000
   1907  C         33.1566   46.0850    3.3500   CA 1907  GRA        0.000000
   1908  C         34.3847   46.7940    3.3500   CA 1908  GRA        0.000000
   1909  C         36.8407   43.9580    3.3500   CA 1909  GRA        0.000000
   1910  C         35.6127   44.6670    3.3500   CA 1910  GRA        0.000000
   1911  C         35.6127   46.0850    3.3500   CA 1911  GRA        0.000000
   1912  C         36.8407   46.7940    3.3500   CA 1912  GRA        0.000000
   1913  C         39.2968   43.9580    3.3500   CA 1913  GRA        0.000000
   1914  C         38.0687   44.6670    3.3500   CA 1914  GRA        0.000000
   1915  C         38.0687   46.0850    3.3500   CA 1915  GRA        0.000000
   1916  C         39.2968   46.7940    3.3500   CA 1916  GRA        0.000000
   1917  C         41.7528   43.9580    3.3500   CA 1917  GRA        0.000000
   1918  C         40.5248   44.6670    3.3500   CA 1918  GRA        0.000000
   1919  C         40.5248   46.0850    3.3500   CA 1919  GRA        0.000000
   1920  C         41.7528   46.7940    3.3500   CA 1920  GRA        0.000000
   1921  C         44.2089   43.9580    3.3500   CA 1921  GRA        0.000000
   1922  C         42.9808   44.6670    3.3500   CA 1922  GRA        0.000000
   1923  C         42.9808   46.0850    3.3500   CA 1923  GRA        0.000000
   1924  C         44.2089   46.7940    3.3500   CA 1924  GRA        0.000000
   1925  C         46.6649   43.9580    3.3500   CA 1925  GRA        0.000000
   1926  C         45.4369   44.6670    3.3500   CA 1926  GRA        0.000000
   1927  C         45.4369   46.0850    3.3500   CA 1927  GRA        0.000000
   1928  C         46.6649   46.7940    3.3500   CA 1928  GRA        0.000000
   1929  C         49.1210   43.9580    3.3500   CA 1929  GRA        0.000000
   1930  C         47.8929   44.6670    3.3500   CA 1930  GRA        0.000000
   1931  C         47.8929   46.0850    3.3500   CA 1931  GRA        0.000000
   1932  C         49.1210   46.7940    3.3500   CA 1932  GRA        0.000000
   1933  C          0.0000   48.2120    3.3500   CA 1933  GRA        0.000000
   1934  C         -1.2280   48.9210    3.3500   CA 1934  GRA        0.000000
   1935  C         -1.2280   50.3390    3.3500   CA 1935  GRA        0.000000
   1936  C          0.0000   51.0480    3.3500   CA 1936  GRA        0.000000
   1937  C          2.4560   48.2120    3.3500   CA 1937  GRA        0.000000
   1938  C          1.2280   48.9210    3.3500   CA 1938  GRA        0.000000
   1939  C          1.2280   50.3390    3.3500   CA 1939  GRA        0.000000
   1940  C          2.4560   51.0480    3.3500   CA 1940  GRA        0.000000
   1941  C          4.9121   48.2120    3.3500   CA 1941  GRA        0.000000
   1942  C          3.6841   48.9210    3.3500   CA 1942  GRA        0.000000
   1943  C          3.6841   50.3390    3.3500   CA 1943  GRA        0.000000
   1944  C          4.9121   51.0480    3.3500   CA 1944  GRA        0.000000
   1945  C          7.3681   48.2120    3.3500   CA 1945  GRA        0.000000
   1946  C          6.1401   48.9210    3.3500   CA 1946  GRA        0.000000
   1947  C          6.1401   50.3390    3.3500   CA 1947  GRA        0.000000
   1948  C          7.3681   51.0480    3.3500   CA 1948  GRA        0.000000
   1949  C          9.8242   48.2120    3.3500   CA 1949  GRA        0.000000
   1950  C          8.5962   48.9210    3.3500   CA 1950  GRA        0.000000
   1951  C          8.5962   50.3390    3.3500   CA 1951  GRA        0.000000
   1952  C          9.8242   51.0480    3.3500   CA 1952  GRA        0.000000
   1953  C         12.2802   48.2120    3.3500   CA 1953  GRA        0.000000
   1954  C         11.0522   48.9210    3.3500   CA 1954  GRA        0.000000
   1955  C         11.0522   50.3390    3.3500   CA 1955  GRA        0.000000
   1956  C         12.2802   51.0480    3.3500   CA 1956  GRA        0.000000
   1957  C         14.7363   48.2120    3.3500   CA 1957  GRA        0.000000
   1958  C         13.5083   48.9210    3.3500   CA 1958  GRA        0.000000
   1959  C         13.5083   50.3390    3.3500   CA 1959  GRA        0.000000
   1960  C         14.7363   51.0480    3.3500   CA 1960  GRA        0.000000
   1961  C         17.1923   48.2120    3.3500   CA 1961  GRA        0.000000
   1962  C         15.9643   48.9210    3.3500   CA 1962  GRA        0.000000
   1963  C         15.9643   50.3390    3.3500   CA 1963  GRA        0.000000
   1964  C         17.1923   51.0480    3.3500   CA 1964  GRA        0.000000
   1965  C         19.6484   48.2120    3.3500   CA 1965  GRA        0.000000
   1966  C         18.4204   48.9210    3.3500   CA 1966  GRA        0.000000
   1967  C         18.4204   50.3390    3.3500   CA 1967  GRA        0.000000
   1968  C         19.6484   51.0480    3.3500   CA 1968  GRA        0.000000
   1969  C         22.1044   48.2120    3.3500   CA 1969  GRA        0.000000
   1970  C         20.8764   48.9210    3.3500   CA 1970  GRA        0.000000
   1971  C         20.8764   50.3390    3.3500   CA 1971  GRA        0.000000
   1972  C         22.1044   51.0480    3.3500   CA 1972  GRA        0.000000
   1973  C         24.5605   48.2120    3.3500   CA 1973  GRA        0.000000
   1974  C         23.3325   48.9210    3.3500   CA 1974  GRA        0.000000
   1975  C         23.3325   50.3390    3.3500   CA 1975  GRA        0.000000
   1976  C         24.5605   51.0480    3.3500   CA 1976  GRA        0.000000
   1977  C         27.0165   48.2120    3.3500   CA 1977  GRA        0.000000
   1978  C         25.7885   48.9210    3.3500   CA 1978  GRA        0.000000
   1979  C         25.7885   50.3390    3.3500   CA 1979  GRA        0.000000
   1980  C         27.0165   51.0480    3.3500   CA 1980  GRA        0.000000
   1981  C         29.4726   48.2120    3.3500   CA 1981  GRA        0.000000
   1982  C         28.2446   48.9210    3.3500   CA 1982  GRA        0.000000
   1983  C         28.2446   50.3390    3.3500   CA 1983  GRA        0.000000
   1984  C         29.4726   51.0480    3.3500   CA 1984  GRA        0.000000
   1985  C         31.9286   48.2120    3.3500   CA 1985  GRA        0.000000
   1986  C         30.7006   48.9210    3.3500   CA 1986  GRA        0.000000
   1987  C         30.7006   50.3390    3.3500   CA 1987  GRA        0.000000
   1988  C         31.9286   51.0480    3.3500   CA 1988  GRA        0.000000
   1989  C         34.3847   48.2120    3.3500   CA 1989  GRA        0.000000
   1990  C         33.1566   48.9210    3.3500   CA 1990  GRA        0.000000
   1991  C         33.1566   50.3390    3.3500   CA 1991  GRA        0.000000
   1992  C         34.3847   51.0480    3.3500   CA 1992  GRA        0.000000
   1993  C         36.8407   48.2120    3.3500   CA 1993  GRA        0.000000
   1994  C         35.6127   48.9210    3.3500   CA 1994  GRA        0.000000
   1995  C         35.6127   50.3390    3.3500   CA 1995  GRA        0.000000
   1996  C         36.8407   51.0480    3.3500   CA 1996  GRA        0.000000
   1997  C         39.2968   48.2120    3.3500   CA 1997  GRA        0.000000
   1998  C         38.0687   48.9210    3.3500   CA 1998  GRA        0.000000
   1999  C         38.0687   50.3390    3.3500   CA 1999  GRA        0.000000
   2000  C         39.2968   51.0480    3.3500   CA 2000  GRA        0.000000
   2001  C         41.7528   48.2120    3.3500   CA 2001  GRA        0.000000
   2002  C         40.5248   48.9210    3.3500   CA 2002  GRA        0.000000
   2003  C         40.5248   50.3390    3.3500   CA 2003  GRA        0.000000
   2004  C         41.7528   51.0480    3.3500   CA 2004  GRA        0.000000
   2005  C         44.2089   48.2120    3.3500   CA 2005  GRA        0.000000
   2006  C         42.9808   48.9210    3.3500   CA 2006  GRA        0.000000
   2007  C         42.9808   50.3390    3.3500   CA 2007  GRA        0.000000
   2008  C         44.2089   51.0480    3.3500   CA 2008  GRA        0.000000
   2009  C         46.6649   48.2120    3.3500   CA 2009  GRA        0.000000
   2010  C         45.4369   48.9210    3.3500   CA 2010  GRA        0.000000
   2011  C         45.4369   50.3390    3.3500   CA 2011  GRA        0.000000
   2012  C         46.6649   51.0480    3.3500   CA 2012  GRA        0.000000
   2013  C         49.1210   48.2120    3.3500   CA 2013  GRA        0.000000
   2014  C         47.8929   48.9210    3.3500   CA 2014  GRA        0.000000
   2015  C         47.8929   50.3390    3.3500   CA 2015  GRA        0.000000
   2016  C         49.1210   51.0480    3.3500   CA 2016  GRA        0.000000
   2017  C          0.0000    0.0000    6.7000   CA 2017  GRA        0.000000
   2018  C         -1.2280    0.7090    6.7000   CA 2018  GRA        0.000000
   2019  C         -1.2280    2.1270    6.7000   CA 2019  GRA        0.000000
   2020  C          0.0000    2.8360    6.7000   CA 2020  GRA        0.000000
   2021  C          2.4560    0.0000    6.7000   CA 2021  GRA        0.000000
   2022  C          1.2280    0.7090    6.7000   CA 2022  GRA        0.000000
   2023  C          1.2280    2.1270    6.7000   CA 2023  GRA        0.000000
   2024  C          2.4560    2.8360    6.7000   CA 2024  GRA        0.000000
   2025  C          4.9121    0.0000    6.7000   CA 2025  GRA        0.000000
   2026  C          3.6841    0.7090    6.7000   CA 2026  GRA        0.000000
   2027  C          3.6841    2.1270    6.7000   CA 2027  GRA        0.000000
   2028  C          4.9121    2.8360    6.7000   CA 2028  GRA        0.000000
   2029  C          7.3681    0.0000    6.7000   CA 2029  GRA        0.000000
   2030  C          6.1401    0.7090    6.7000   CA 2030  GRA        0.000000
   2031  C          6.1401    2.1270    6.7000   CA 2031  GRA        0.000000
   2032  C          7.3681    2.8360    6.7000   CA 2032  GRA        0.000000
   2033  C          9.8242    0.0000    6.7000   CA 2033  GRA        0.000000
   2034  C          8.5962    0.7090    6.7000   CA 2034  GRA        0.000000
   2035  C          8.5962    2.1270    6.7000   CA 2035  GRA        0.000000
   2036  C          9.8242    2.8360    6.7000   CA 2036  GRA        0.000000
   2037  C         12.2802    0.0000    6.7000   CA 2037  GRA        0.000000
   2038  C         11.0522    0.7090    6.7000   CA 2038  GRA        0.000000
   2039  C         11.0522    2.1270    6.7000   CA 2039  GRA        0.000000
   2040  C         12.2802    2.8360    6.7000   CA 2040  GRA        0.000000
   2041  C         14.7363    0.0000    6.7000   CA 2041  GRA        0.000000
   2042  C         13.5083    0.7090    6.7000   CA 2042  GRA        0.000000
   2043  C         13.5083    2.1270    6.7000   CA 2043  GRA        0.000000
   2044  C         14.7363    2.8360    6.7000   CA 2044  GRA        0.000000
   2045  C         17.1923    0.0000    6.7000   CA 2045  GRA        0.000000
   2046  C         15.9643    0.7090    6.7000   CA 2046  GRA        0.000000
   2047  C         15.9643    2.1270    6.7000   CA 2047  GRA        0.000000
   2048  C         17.1923    2.8360    6.7000   CA 2048  GRA        0.000000
   2049  C         19.6484    0.0000    6.7000   CA 2049  GRA        0.000000
   2050  C         18.4204    0.7090    6.7000   CA 2050  GRA        0.000000
   2051  C         18.4204    2.1270    6.7000   CA 2051  GRA        0.000000
   2052  C         19.6484    2.8360    6.7000   CA 2052  GRA        0.000000
   2053  C         22.1044    0.0000    6.7000   CA 2053  GRA        0.000000
   2054  C         20.8764    0.7090    6.7000   CA 2054  GRA        0.000000
   2055  C         20.8764    2.1270    6.7000   CA 2055  GRA        0.000000
   2056  C         22.1044    2.8360    6.7000   CA 2056  GRA        0.000000
   2057  C         24.5605    0.0000    6.7000   CA 2057  GRA        0.000000
   2058  C         23.3325    0.7090    6.7000   CA 2058  GRA        0.000000
   2059  C         23.3325    2.1270    6.7000   CA 2059  GRA        0.000000
   2060  C         24.5605    2.8360    6.7000   CA 2060  GRA        0.000000
   2061  C         27.0165    0.0000    6.7000   CA 2061  GRA        0.000000
   2062  C         25.7885    0.7090    6.7000   CA 2062  GRA        0.000000
   2063  C         25.7885    2.1270    6.7000   CA 2063  GRA        0.000000
   2064  C         27.0165    2.8360    6.7000   CA 2064  GRA        0.000000
   2065  C         29.4726    0.0000    6.7000   CA 2065  GRA        0.000000
   2066  C         28.2446    0.7090    6.7000   CA 2066  GRA        0.000000
   2067  C         28.2446    2.1270    6.7000   CA 2067  GRA        0.000000
   2068  C         29.4726    2.8360    6.7000   CA 2068  GRA        0.000000
   2069  C         31.9286    0.0000    6.7000   CA 2069  GRA        0.000000
   2070  C         30.7006    0.7090    6.7000   CA 2070  GRA        0.000000
   2071  C         30.7006    2.1270    6.7000   CA 2071  GRA        0.000000
   2072  C         31.9286    2.8360    6.7000   CA 2072  GRA        0.000000
   2073  C         34.3847    0.0000    6.7000   CA 2073  GRA        0.000000
   2074  C         33.1566    0.7090    6.7000   CA 2074  GRA        0.000000
   2075  C         33.1566    2.1270    6.7000   CA 2075  GRA        0.000000
   2076  C         34.3847    2.8360    6.7000   CA 2076  GRA        0.000000
   2077  C         36.8407    0.0000    6.7000   CA 2077  GRA        0.000000
   2078  C         35.6127    0.7090    6.7000   CA 2078  GRA        0.000000
   2079  C         35.6127    2.1270    6.7000   CA 2079  GRA        0.000000
   2080  C         36.8407    2.8360    6.7000   CA 2080  GRA        0.000000
   2081  C         39.2968    0.0000    6.7000   CA 2081  GRA        0.000000
   2082  C         38.0687    0.7090    6.7000   CA 2082  GRA        0.000000
   2083  C         38.0687    2.1270    6.7000   CA 2083  GRA        0.000000
   2084  C         39.2968    2.8360    6.7000   CA 2084  GRA        0.000000
   2085  C         41.7528    0.0000    6.7000   CA 2085  GRA        0.000000
   2086  C         40.5248    0.7090    6.7000   CA 2086  GRA        0.000000
   2087  C         40.5248    2.1270    6.7000   CA 2087  GRA        0.000000
   2088  C         41.7528    2.8360    6.7000   CA 2088  GRA        0.000000
   2089  C         44.2089    0.0000    6.7000   CA 2089  GRA        0.000000
   2090  C         42.9808    0.7090    6.7000   CA 2090  GRA        0.000000
   2091  C         42.9808    2.1270    6.7000   CA 2091  GRA        0.000000
   2092  C         44.2089    2.8360    6.7000   CA 2092  GRA        0.000000
   2093  C         46.6649    0.0000    6.7000   CA 2093  GRA        0.000000
   2094  C         45.4369    0.7090    6.7000   CA 2094  GRA        0.000000
   2095  C         45.4369    2.1270    6.7000   CA 2095  GRA        0.000000
   2096  C         46.6649    2.8360    6.7000   CA 2096  GRA        0.000000
   2097  C         49.1210    0.0000    6.7000   CA 2097  GRA        0.000000
   2098  C         47.8929    0.7090    6.7000   CA 2098  GRA        0.000000
   2099  C         47.8929    2.1270    6.7000   CA 2099  GRA        0.000000
   2100  C         49.1210    2.8360    6.7000   CA 2100  GRA        0.000000
   2101  C          0.0000    4.2540    6.7000   CA 2101  GRA        0.000000
   2102  C         -1.2280    4.9630    6.7000   CA 2102  GRA        0.000000
   2103  C         -1.2280    6.3810    6.7000   CA 2103  GRA        0.000000
   2104  C          0.0000    7.0900    6.7000   CA 2104  GRA        0.000000
   2105  C          2.4560    4.2540    6.7000   CA 2105  GRA        0.000000
   2106  C          1.2280    4.9630    6.7000   CA 2106  GRA        0.000000
   2107  C          1.2280    6.3810    6.7000   CA 2107  GRA        0.000000
   2108  C          2.4560    7.0900    6.7000   CA 2108  GRA        0.000000
   2109  C          4.9121    4.2540    6.7000   CA 2109  GRA        0.000000
   2110  C          3.6841    4.9630    6.7000   CA 2110  GRA        0.000000
   2111  C          3.6841    6.3810    6.7000   CA 2111  GRA        0.000000
   2112  C          4.9121    7.0900    6.7000   CA 2112  GRA        0.000000
   2113  C          7.3681    4.2540    6.7000   CA 2113  GRA        0.000000
   2114  C          6.1401    4.9630    6.7000   CA 2114  GRA        0.000000
   2115  C          6.1401    6.3810    6.7000   CA 2115  GRA        0.000000
   2116  C          7.3681    7.0900    6.7000   CA 2116  GRA        0.000000
   2117  C          9.8242    4.2540    6.7000   CA 2117  GRA        0.000000
   2118  C          8.5962    4.9630    6.7000   CA 2118  GRA        0.000000
   2119  C          8.5962    6.3810    6.7000   CA 2119  GRA        0.000000
   2120  C          9.8242    7.0900    6.7000   CA 2120  GRA        0.000000
   2121  C         12.2802    4.2540    6.7000   CA 2121  GRA        0.000000
   2122  C         11.0522    4.9630    6.7000   CA 2122  GRA        0.000000
   2123  C         11.0522    6.3810    6.7000   CA 2123  GRA        0.000000
   2124  C         12.2802    7.0900    6.7000   CA 2124  GRA        0.000000
   2125  C         14.7363    4.2540    6.7000   CA 2125  GRA        0.000000
   2126  C         13.5083    4.9630    6.7000   CA 2126  GRA        0.000000
   2127  C         13.5083    6.3810    6.7000   CA 2127  GRA        0.000000
   2128  C         14.7363    7.0900    6.7000   CA 2128  GRA        0.000000
   2129  C         17.1923    4.2540    6.7000   CA 2129  GRA        0.000000
   2130  C         15.9643    4.9630    6.7000   CA 2130  GRA        0.000000
   2131  C         15.9643    6.3810    6.7000   CA 2131  GRA        0.000000
   2132  C         17.1923    7.0900    6.7000   CA 2132  GRA        0.000000
   2133  C         19.6484    4.2540    6.7000   CA 2133  GRA        0.000000
   2134  C         18.4204    4.9630    6.7000   CA 2134  GRA        0.000000
   2135  C         18.4204    6.3810    6.7000   CA 2135  GRA        0.000000
   2136  C         19.6484    7.0900    6.7000   CA 2136  GRA        0.000000
   2137  C         22.1044    4.2540    6.7000   CA 2137  GRA        0.000000
   2138  C         20.8764    4.9630    6.7000   CA 2138  GRA        0.000000
   2139  C         20.8764    6.3810    6.7000   CA 2139  GRA        0.000000
   2140  C         22.1044    7.0900    6.7000   CA 2140  GRA        0.000000
   2141  C         24.5605    4.2540    6.7000   CA 2141  GRA        0.000000
   2142  C         23.3325    4.9630    6.7000   CA 2142  GRA        0.000000
   2143  C         23.3325    6.3810    6.7000   CA 2143  GRA        0.000000
   2144  C         24.5605    7.0900    6.7000   CA 2144  GRA        0.000000
   2145  C         27.0165    4.2540    6.7000   CA 2145  GRA        0.000000
   2146  C         25.7885    4.9630    6.7000   CA 2146  GRA        0.000000
   2147  C         25.7885    6.3810    6.7000   CA 2147  GRA        0.000000
   2148  C         27.0165    7.0900    6.7000   CA 2148  GRA        0.000000
   2149  C         29.4726    4.2540    6.7000   CA 2149  GRA        0.000000
   2150  C         28.2446    4.9630    6.7000   CA 2150  GRA        0.000000
   2151  C         28.2446    6.3810    6.7000   CA 2151  GRA        0.000000
   2152  C         29.4726    7.0900    6.7000   CA 2152  GRA        0.000000
   2153  C         31.9286    4.2540    6.7000   CA 2153  GRA        0.000000
   2154  C         30.7006    4.9630    6.7000   CA 2154  GRA        0.000000
   2155  C         30.7006    6.3810    6.7000   CA 2155  GRA        0.000000
   2156  C         31.9286    7.0900    6.7000   CA 2156  GRA        0.000000
   2157  C         34.3847    4.2540    6.7000   CA 2157  GRA        0.000000
   2158  C         33.1566    4.9630    6.7000   CA 2158  GRA        0.000000
   2159  C         33.1566    6.3810    6.7000   CA 2159  GRA        0.000000
   2160  C         34.3847    7.0900    6.7000   CA 2160  GRA        0.000000
   2161  C         36.8407    4.2540    6.7000   CA 2161  GRA        0.000000
   2162  C         35.6127    4.9630    6.7000   CA 2162  GRA        0.000000
   2163  C         35.6127    6.3810    6.7000   CA 2163  GRA        0.000000
   2164  C         36.8407    7.0900    6.7000   CA 2164  GRA        0.000000
   2165  C         39.2968    4.2540    6.7000   CA 2165  GRA        0.000000
   2166  C         38.0687    4.9630    6.7000   CA 2166  GRA        0.000000
   2167  C         38.0687    6.3810    6.7000   CA 2167  GRA        0.000000
   2168  C         39.2968    7.0900    6.7000   CA 2168  GRA        0.000000
   2169  C         41.7528    4.2540    6.7000   CA 2169  GRA        0.000000
   2170  C         40.5248    4.9630    6.7000   CA 2170  GRA        0.000000
   2171  C         40.5248    6.3810    6.7000   CA 2171  GRA        0.000000
   2172  C         41.7528    7.0900    6.7000   CA 2172  GRA        0.000000
   2173  C         44.2089    4.2540    6.7000   CA 2173  GRA        0.000000
   2174  C         42.9808    4.9630    6.7000   CA 2174  GRA        0.000000
   2175  C         42.9808    6.3810    6.7000   CA 2175  GRA        0.000000
   2176  C         44.2089    7.0900    6.7000   CA 2176  GRA        0.000000
   2177  C         46.6649    4.2540    6.7000   CA 2177  GRA        0.000000
   2178  C         45.4369    4.9630    6.7000   CA 2178  GRA        0.000000
   2179  C         45.4369    6.3810    6.7000   CA 2179  GRA        0.000000
   2180  C         46.6649    7.0900    6.7000   CA 2180  GRA        0.000000
   2181  C         49.1210    4.2540    6.7000   CA 2181  GRA        0.000000
   2182  C         47.8929    4.9630    6.7000   CA 2182  GRA        0.000000
   2183  C         47.8929    6.3810    6.7000   CA 2183  GRA        0.000000
   2184  C         49.1210    7.0900    6.7000   CA 2184  GRA        0.000000
   2185  C          0.0000    8.5080    6.7000   CA 2185  GRA        0.000000
   2186  C         -1.2280    9.2170    6.7000   CA 2186  GRA        0.000000
   2187  C         -1.2280   10.6350    6.7000   CA 2187  GRA        0.000000
   2188  C          0.0000   11.3440    6.7000   CA 2188  GRA        0.000000
   2189  C          2.4560    8.5080    6.7000   CA 2189  GRA        0.000000
   2190  C          1.2280    9.2170    6.7000   CA 2190  GRA        0.000000
   2191  C          1.2280   10.6350    6.7000   CA 2191  GRA        0.000000
   2192  C          2.4560   11.3440    6.7000   CA 2192  GRA        0.000000
   2193  C          4.9121    8.5080    6.7000   CA 2193  GRA        0.000000
   2194  C          3.6841    9.2170    6.7000   CA 2194  GRA        0.000000
   2195  C          3.6841   10.6350    6.7000   CA 2195  GRA        0.000000
   2196  C          4.9121   11.3440    6.7000   CA 2196  GRA        0.000000
   2197  C          7.3681    8.5080    6.7000   CA 2197  GRA        0.000000
   2198  C          6.1401    9.2170    6.7000   CA 2198  GRA        0.000000
   2199  C          6.1401   10.6350    6.7000   CA 2199  GRA        0.000000
   2200  C          7.3681   11.3440    6.7000   CA 2200  GRA        0.000000
   2201  C          9.8242    8.5080    6.7000   CA 2201  GRA        0.000000
   2202  C          8.5962    9.2170    6.7000   CA 2202  GRA        0.000000
   2203  C          8.5962   10.6350    6.7000   CA 2203  GRA        0.000000
   2204  C          9.8242   11.3440    6.7000   CA 2204  GRA        0.000000
   2205  C         12.2802    8.5080    6.7000   CA 2205  GRA        0.000000
   2206  C         11.0522    9.2170    6.7000   CA 2206  GRA        0.000000
   2207  C         11.0522   10.6350    6.7000   CA 2207  GRA        0.000000
   2208  C         12.2802   11.3440    6.7000   CA 2208  GRA        0.000000
   2209  C         14.7363    8.5080    6.7000   CA 2209  GRA        0.000000
   2210  C         13.5083    9.2170    6.7000   CA 2210  GRA        0.000000
   2211  C         13.5083   10.6350    6.7000   CA 2211  GRA        0.000000
   2212  C         14.7363   11.3440    6.7000   CA 2212  GRA        0.000000
   2213  C         17.1923    8.5080    6.7000   CA 2213  GRA        0.000000
   2214  C         15.9643    9.2170    6.7000   CA 2214  GRA        0.000000
   2215  C         15.9643   10.6350    6.7000   CA 2215  GRA        0.000000
   2216  C         17.1923   11.3440    6.7000   CA 2216  GRA        0.000000
   2217  C         19.6484    8.5080    6.7000   CA 2217  GRA        0.000000
   2218  C         18.4204    9.2170    6.7000   CA 2218  GRA        0.000000
   2219  C         18.4204   10.6350    6.7000   CA 2219  GRA        0.000000
   2220  C         19.6484   11.3440    6.7000   CA 2220  GRA        0.000000
   2221  C         22.1044    8.5080    6.7000   CA 2221  GRA        0.000000
   2222  C         20.8764    9.2170    6.7000   CA 2222  GRA        0.000000
   2223  C         20.8764   10.6350    6.7000   CA 2223  GRA        0.000000
   2224  C         22.1044   11.3440    6.7000   CA 2224  GRA        0.000000
   2225  C         24.5605    8.5080    6.7000   CA 2225  GRA        0.000000
   2226  C         23.3325    9.2170    6.7000   CA 2226  GRA        0.000000
   2227  C         23.3325   10.6350    6.7000   CA 2227  GRA        0.000000
   2228  C         24.5605   11.3440    6.7000   CA 2228  GRA        0.000000
   2229  C         27.0165    8.5080    6.7000   CA 2229  GRA        0.000000
   2230  C         25.7885    9.2170    6.7000   CA 2230  GRA        0.000000
   2231  C         25.7885   10.6350    6.7000   CA 2231  GRA        0.000000
   2232  C         27.0165   11.3440    6.7000   CA 2232  GRA        0.000000
   2233  C         29.4726    8.5080    6.7000   CA 2233  GRA        0.000000
   2234  C         28.2446    9.2170    6.7000   CA 2234  GRA        0.000000
   2235  C         28.2446   10.6350    6.7000   CA 2235  GRA        0.000000
   2236  C         29.4726   11.3440    6.7000   CA 2236  GRA        0.000000
   2237  C         31.9286    8.5080    6.7000   CA 2237  GRA        0.000000
   2238  C         30.7006    9.2170    6.7000   CA 2238  GRA        0.000000
   2239  C         30.7006   10.6350    6.7000   CA 2239  GRA        0.000000
   2240  C         31.9286   11.3440    6.7000   CA 2240  GRA        0.000000
   2241  C         34.3847    8.5080    6.7000   CA 2241  GRA        0.000000
   2242  C         33.1566    9.2170    6.7000   CA 2242  GRA        0.000000
   2243  C         33.1566   10.6350    6.7000   CA 2243  GRA        0.000000
   2244  C         34.3847   11.3440    6.7000   CA 2244  GRA        0.000000
   2245  C         36.8407    8.5080    6.7000   CA 2245  GRA        0.000000
   2246  C         35.6127    9.2170    6.7000   CA 2246  GRA        0.000000
   2247  C         35.6127   10.6350    6.7000   CA 2247  GRA        0.000000
   2248  C         36.8407   11.3440    6.7000   CA 2248  GRA        0.000000
   2249  C         39.2968    8.5080    6.7000   CA 2249  GRA        0.000000
   2250  C         38.0687    9.2170    6.7000   CA 2250  GRA        0.000000
   2251  C         38.0687   10.6350    6.7000   CA 2251  GRA        0.000000
   2252  C         39.2968   11.3440    6.7000   CA 2252  GRA        0.000000
   2253  C         41.7528    8.5080    6.7000   CA 2253  GRA        0.000000
   2254  C         40.5248    9.2170    6.7000   CA 2254  GRA        0.000000
   2255  C         40.5248   10.6350    6.7000   CA 2255  GRA        0.000000
   2256  C         41.7528   11.3440    6.7000   CA 2256  GRA        0.000000
   2257  C         44.2089    8.5080    6.7000   CA 2257  GRA        0.000000
   2258  C         42.9808    9.2170    6.7000   CA 2258  GRA        0.000000
   2259  C         42.9808   10.6350    6.7000   CA 2259  GRA        0.000000
   2260  C         44.2089   11.3440    6.7000   CA 2260  GRA        0.000000
   2261  C         46.6649    8.5080    6.7000   CA 2261  GRA        0.000000
   2262  C         45.4369    9.2170    6.7000   CA 2262  GRA        0.000000
   2263  C         45.4369   10.6350    6.7000   CA 2263  GRA        0.000000
   2264  C         46.6649   11.3440    6.7000   CA 2264  GRA        0.000000
   2265  C         49.1210    8.5080    6.7000   CA 2265  GRA        0.000000
   2266  C         47.8929    9.2170    6.7000   CA 2266  GRA        0.000000
   2267  C         47.8929   10.6350    6.7000   CA 2267  GRA        0.000000
   2268  C         49.1210   11.3440    6.7000   CA 2268  GRA        0.000000
   2269  C          0.0000   12.7620    6.7000   CA 2269  GRA        0.000000
   2270  C         -1.2280   13.4710    6.7000   CA 2270  GRA        0.000000
   2271  C         -1.2280   14.8890    6.7000   CA 2271  GRA        0.000000
   2272  C          0.0000   15.5980    6.7000   CA 2272  GRA        0.000000
   2273  C          2.4560   12.7620    6.7000   CA 2273  GRA        0.000000
   2274  C          1.2280   13.4710    6.7000   CA 2274  GRA        0.000000
   2275  C          1.2280   14.8890    6.7000   CA 2275  GRA        0.000000
   2276  C          2.4560   15.5980    6.7000   CA 2276  GRA        0.000000
   2277  C          4.9121   12.7620    6.7000   CA 2277  GRA        0.000000
   2278  C          3.6841   13.4710    6.7000   CA 2278  GRA        0.000000
   2279  C          3.6841   14.8890    6.7000   CA 2279  GRA        0.000000
   2280  C          4.9121   15.5980    6.7000   CA 2280  GRA        0.000000
   2281  C          7.3681   12.7620    6.7000   CA 2281  GRA        0.000000
   2282  C          6.1401   13.4710    6.7000   CA 2282  GRA        0.000000
   2283  C          6.1401   14.8890    6.7000   CA 2283  GRA        0.000000
   2284  C          7.3681   15.5980    6.7000   CA 2284  GRA        0.000000
   2285  C          9.8242   12.7620    6.7000   CA 2285  GRA        0.000000
   2286  C          8.5962   13.4710    6.7000   CA 2286  GRA        0.000000
   2287  C          8.5962   14.8890    6.7000   CA 2287  GRA        0.000000
   2288  C          9.8242   15.5980    6.7000   CA 2288  GRA        0.000000
   2289  C         12.2802   12.7620    6.7000   CA 2289  GRA        0.000000
   2290  C         11.0522   13.4710    6.7000   CA 2290  GRA        0.000000
   2291  C         11.0522   14.8890    6.7000   CA 2291  GRA        0.000000
   2292  C         12.2802   15.5980    6.7000   CA 2292  GRA        0.000000
   2293  C         14.7363   12.7620    6.7000   CA 2293  GRA        0.000000
   2294  C         13.5083   13.4710    6.7000   CA 2294  GRA        0.000000
   2295  C         13.5083   14.8890    6.7000   CA 2295  GRA        0.000000
   2296  C         14.7363   15.5980    6.7000   CA 2296  GRA        0.000000
   2297  C         17.1923   12.7620    6.7000   CA 2297  GRA        0.000000
   2298  C         15.9643   13.4710    6.7000   CA 2298  GRA        0.000000
   2299  C         15.9643   14.8890    6.7000   CA 2299  GRA        0.000000
   2300  C         17.1923   15.5980    6.7000   CA 2300  GRA        0.000000
   2301  C         19.6484   12.7620    6.7000   CA 2301  GRA        0.000000
   2302  C         18.4204   13.4710    6.7000   CA 2302  GRA        0.000000
   2303  C         18.4204   14.8890    6.7000   CA 2303  GRA        0.000000
   2304  C         19.6484   15.5980    6.7000   CA 2304  GRA        0.000000
   2305  C         22.1044   12.7620    6.7000   CA 2305  GRA        0.000000
   2306  C         20.8764   13.4710    6.7000   CA 2306  GRA        0.000000
   2307  C         20.8764   14.8890    6.7000   CA 2307  GRA        0.000000
   2308  C         22.1044   15.5980    6.7000   CA 2308  GRA        0.000000
   2309  C         24.5605   12.7620    6.7000   CA 2309  GRA        0.000000
   2310  C         23.3325   13.4710    6.7000   CA 2310  GRA        0.000000
   2311  C         23.3325   14.8890    6.7000   CA 2311  GRA        0.000000
   2312  C         24.5605   15.5980    6.7000   CA 2312  GRA        0.000000
   2313  C         27.0165   12.7620    6.7000   CA 2313  GRA        0.000000
   2314  C         25.7885   13.4710    6.7000   CA 2314  GRA        0.000000
   2315  C         25.7885   14.8890    6.7000   CA 2315  GRA        0.000000
   2316  C         27.0165   15.5980    6.7000   CA 2316  GRA        0.000000
   2317  C         29.4726   12.7620    6.7000   CA 2317  GRA        0.000000
   2318  C         28.2446   13.4710    6.7000   CA 2318  GRA        0.000000
   2319  C         28.2446   14.8890    6.7000   CA 2319  GRA        0.000000
   2320  C         29.4726   15.5980    6.7000   CA 2320  GRA        0.000000
   2321  C         31.9286   12.7620    6.7000   CA 2321  GRA        0.000000
   2322  C         30.7006   13.4710    6.7000   CA 2322  GRA        0.000000
   2323  C         30.7006   14.8890    6.7000   CA 2323  GRA        0.000000
   2324  C         31.9286   15.5980    6.7000   CA 2324  GRA        0.000000
   2325  C         34.3847   12.7620    6.7000   CA 2325  GRA        0.000000
   2326  C         33.1566   13.4710    6.7000   CA 2326  GRA        0.000000
   2327  C         33.1566   14.8890    6.7000   CA 2327  GRA        0.000000
   2328  C         34.3847   15.5980    6.7000   CA 2328  GRA        0.000000
   2329  C         36.8407   12.7620    6.7000   CA 2329  GRA        0.000000
   2330  C         35.6127   13.4710    6.7000   CA 2330  GRA        0.000000
   2331  C         35.6127   14.8890    6.7000   CA 2331  GRA        0.000000
   2332  C         36.8407   15.5980    6.7000   CA 2332  GRA        0.000000
   2333  C         39.2968   12.7620    6.7000   CA 2333  GRA        0.000000
   2334  C         38.0687   13.4710    6.7000   CA 2334  GRA        0.000000
   2335  C         38.0687   14.8890    6.7000   CA 2335  GRA        0.000000
   2336  C         39.2968   15.5980    6.7000   CA 2336  GRA        0.000000
   2337  C         41.7528   12.7620    6.7000   CA 2337  GRA        0.000000
   2338  C         40.5248   13.4710    6.7000   CA 2338  GRA        0.000000
   2339  C         40.5248   14.8890    6.7000   CA 2339  GRA        0.000000
   2340  C         41.7528   15.5980    6.7000   CA 2340  GRA        0.000000
   2341  C         44.2089   12.7620    6.7000   CA 2341  GRA        0.000000
   2342  C         42.9808   13.4710    6.7000   CA 2342  GRA        0.000000
   2343  C         42.9808   14.8890    6.7000   CA 2343  GRA        0.000000
   2344  C         44.2089   15.5980    6.7000   CA 2344  GRA        0.000000
   2345  C         46.6649   12.7620    6.7000   CA 2345  GRA        0.000000
   2346  C         45.4369   13.4710    6.7000   CA 2346  GRA        0.000000
   2347  C         45.4369   14.8890    6.7000   CA 2347  GRA        0.000000
   2348  C         46.6649   15.5980    6.7000   CA 2348  GRA        0.000000
   2349  C         49.1210   12.7620    6.7000   CA 2349  GRA        0.000000
   2350  C         47.8929   13.4710    6.7000   CA 2350  GRA        0.000000
   2351  C         47.8929   14.8890    6.7000   CA 2351  GRA        0.000000
   2352  C         49.1210   15.5980    6.7000   CA 2352  GRA        0.000000
   2353  C          0.0000   17.0160    6.7000   CA 2353  GRA        0.000000
   2354  C         -1.2280   17.7250    6.7000   CA 2354  GRA        0.000000
   2355  C         -1.2280   19.1430    6.7000   CA 2355  GRA        0.000000
   2356  C          0.0000   19.8520    6.7000   CA 2356  GRA        0.000000
   2357  C          2.4560   17.0160    6.7000   CA 2357  GRA        0.000000
   2358  C          1.2280   17.7250    6.7000   CA 2358  GRA        0.000000
   2359  C          1.2280   19.1430    6.7000   CA 2359  GRA        0.000000
   2360  C          2.4560   19.8520    6.7000   CA 2360  GRA        0.000000
   2361  C          4.9121   17.0160    6.7000   CA 2361  GRA        0.000000
   2362  C          3.6841   17.7250    6.7000   CA 2362  GRA        0.000000
   2363  C          3.6841   19.1430    6.7000   CA 2363  GRA        0.000000
   2364  C          4.9121   19.8520    6.7000   CA 2364  GRA        0.000000
   2365  C          7.3681   17.0160    6.7000   CA 2365  GRA        0.000000
   2366  C          6.1401   17.7250    6.7000   CA 2366  GRA        0.000000
   2367  C          6.1401   19.1430    6.7000   CA 2367  GRA        0.000000
   2368  C          7.3681   19.8520    6.7000   CA 2368  GRA        0.000000
   2369  C          9.8242   17.0160    6.7000   CA 2369  GRA        0.000000
   2370  C          8.5962   17.7250    6.7000   CA 2370  GRA        0.000000
   2371  C          8.5962   19.1430    6.7000   CA 2371  GRA        0.000000
   2372  C          9.8242   19.8520    6.7000   CA 2372  GRA        0.000000
   2373  C         12.2802   17.0160    6.7000   CA 2373  GRA        0.000000
   2374  C         11.0522   17.7250    6.7000   CA 2374  GRA        0.000000
   2375  C         11.0522   19.1430    6.7000   CA 2375  GRA        0.000000
   2376  C         12.2802   19.8520    6.7000   CA 2376  GRA        0.000000
   2377  C         14.7363   17.0160    6.7000   CA 2377  GRA        0.000000
   2378  C         13.5083   17.7250    6.7000   CA 2378  GRA        0.000000
   2379  C         13.5083   19.1430    6.7000   CA 2379  GRA        0.000000
   2380  C         14.7363   19.8520    6.7000   CA 2380  GRA        0.000000
   2381  C         17.1923   17.0160    6.7000   CA 2381  GRA        0.000000
   2382  C         15.9643   17.7250    6.7000   CA 2382  GRA        0.000000
   2383  C         15.9643   19.1430    6.7000   CA 2383  GRA        0.000000
   2384  C         17.1923   19.8520    6.7000   CA 2384  GRA        0.000000
   2385  C         19.6484   17.0160    6.7000   CA 2385  GRA        0.000000
   2386  C         18.4204   17.7250    6.7000   CA 2386  GRA        0.000000
   2387  C         18.4204   19.1430    6.7000   CA 2387  GRA        0.000000
   2388  C         19.6484   19.8520    6.7000   CA 2388  GRA        0.000000
   2389  C         22.1044   17.0160    6.7000   CA 2389  GRA        0.000000
   2390  C         20.8764   17.7250    6.7000   CA 2390  GRA        0.000000
   2391  C         20.8764   19.1430    6.7000   CA 2391  GRA        0.000000
   2392  C         22.1044   19.8520    6.7000   CA 2392  GRA        0.000000
   2393  C         24.5605   17.0160    6.7000   CA 2393  GRA        0.000000
   2394  C         23.3325   17.7250    6.7000   CA 2394  GRA        0.000000
   2395  C         23.3325   19.1430    6.7000   CA 2395  GRA        0.000000
   2396  C         24.5605   19.8520    6.7000   CA 2396  GRA        0.000000
   2397  C         27.0165   17.0160    6.7000   CA 2397  GRA        0.000000
   2398  C         25.7885   17.7250    6.7000   CA 2398  GRA        0.000000
   2399  C         25.7885   19.1430    6.7000   CA 2399  GRA        0.000000
   2400  C         27.0165   19.8520    6.7000   CA 2400  GRA        0.000000
   2401  C         29.4726   17.0160    6.7000   CA 2401  GRA        0.000000
   2402  C         28.2446   17.7250    6.7000   CA 2402  GRA        0.000000
   2403  C         28.2446   19.1430    6.7000   CA 2403  GRA        0.000000
   2404  C         29.4726   19.8520    6.7000   CA 2404  GRA        0.000000
   2405  C         31.9286   17.0160    6.7000   CA 2405  GRA        0.000000
   2406  C         30.7006   17.7250    6.7000   CA 2406  GRA        0.000000
   2407  C         30.7006   19.1430    6.7000   CA 2407  GRA        0.000000
   2408  C         31.9286   19.8520    6.7000   CA 2408  GRA        0.000000
   2409  C         34.3847   17.0160    6.7000   CA 2409  GRA        0.000000
   2410  C         33.1566   17.7250    6.7000   CA 2410  GRA        0.000000
   2411  C         33.1566   19.1430    6.7000   CA 2411  GRA        0.000000
   2412  C         34.3847   19.8520    6.7000   CA 2412  GRA        0.000000
   2413  C         36.8407   17.0160    6.7000   CA 2413  GRA        0.000000
   2414  C         35.6127   17.7250    6.7000   CA 2414  GRA        0.000000
   2415  C         35.6127   19.1430    6.7000   CA 2415  GRA        0.000000
   2416  C         36.8407   19.8520    6.7000   CA 2416  GRA        0.000000
   2417  C         39.2968   17.0160    6.7000   CA 2417  GRA        0.000000
   2418  C         38.0687   17.7250    6.7000   CA 2418  GRA        0.000000
   2419  C         38.0687   19.1430    6.7000   CA 2419  GRA        0.000000
   2420  C         39.2968   19.8520    6.7000   CA 2420  GRA        0.000000
   2421  C         41.7528   17.0160    6.7000   CA 2421  GRA        0.000000
   2422  C         40.5248   17.7250    6.7000   CA 2422  GRA        0.000000
   2423  C         40.5248   19.1430    6.7000   CA 2423  GRA        0.000000
   2424  C         41.7528   19.8520    6.7000   CA 2424  GRA        0.000000
   2425  C         44.2089   17.0160    6.7000   CA 2425  GRA        0.000000
   2426  C         42.9808   17.7250    6.7000   CA 2426  GRA        0.000000
   2427  C         42.9808   19.1430    6.7000   CA 2427  GRA        0.000000
   2428  C         44.2089   19.8520    6.7000   CA 2428  GRA        0.000000
   2429  C         46.6649   17.0160    6.7000   CA 2429  GRA        0.000000
   2430  C         45.4369   17.7250    6.7000   CA 2430  GRA        0.000000
   2431  C         45.4369   19.1430    6.7000   CA 2431  GRA        0.000000
   2432  C         46.6649   19.8520    6.7000   CA 2432  GRA        0.000000
   2433  C         49.1210   17.0160    6.7000   CA 2433  GRA        0.000000
   2434  C         47.8929   17.7250    6.7000   CA 2434  GRA        0.000000
   2435  C         47.8929   19.1430    6.7000   CA 2435  GRA        0.000000
   2436  C         49.1210   19.8520    6.7000   CA 2436  GRA        0.000000
   2437  C          0.0000   21.2700    6.7000   CA 2437  GRA        0.000000
   2438  C         -1.2280   21.9790    6.7000   CA 2438  GRA        0.000000
   2439  C         -1.2280   23.3970    6.7000   CA 2439  GRA        0.000000
   2440  C          0.0000   24.1060    6.7000   CA 2440  GRA        0.000000
   2441  C          2.4560   21.2700    6.7000   CA 2441  GRA        0.000000
   2442  C          1.2280   21.9790    6.7000   CA 2442  GRA        0.000000
   2443  C          1.2280   23.3970    6.7000   CA 2443  GRA        0.000000
   2444  C          2.4560   24.1060    6.7000   CA 2444  GRA        0.000000
   2445  C          4.9121   21.2700    6.7000   CA 2445  GRA        0.000000
   2446  C          3.6841   21.9790    6.7000   CA 2446  GRA        0.000000
   2447  C          3.6841   23.3970    6.7000   CA 2447  GRA        0.000000
   2448  C          4.9121   24.1060    6.7000   CA 2448  GRA        0.000000
   2449  C          7.3681   21.2700    6.7000   CA 2449  GRA        0.000000
   2450  C          6.1401   21.9790    6.7000   CA 2450  GRA        0.000000
   2451  C          6.1401   23.3970    6.7000   CA 2451  GRA        0.000000
   2452  C          7.3681   24.1060    6.7000   CA 2452  GRA        0.000000
   2453  C          9.8242   21.2700    6.7000   CA 2453  GRA        0.000000
   2454  C          8.5962   21.9790    6.7000   CA 2454  GRA        0.000000
   2455  C          8.5962   23.3970    6.7000   CA 2455  GRA        0.000000
   2456  C          9.8242   24.1060    6.7000   CA 2456  GRA        0.000000
   2457  C         12.2802   21.2700    6.7000   CA 2457  GRA        0.000000
   2458  C         11.0522   21.9790    6.7000   CA 2458  GRA        0.000000
   2459  C         11.0522   23.3970    6.7000   CA 2459  GRA        0.000000
   2460  C         12.2802   24.1060    6.7000   CA 2460  GRA        0.000000
   2461  C         14.7363   21.2700    6.7000   CA 2461  GRA        0.000000
   2462  C         13.5083   21.9790    6.7000   CA 2462  GRA        0.000000
   2463  C         13.5083   23.3970    6.7000   CA 2463  GRA        0.000000
   2464  C         14.7363   24.1060    6.7000   CA 2464  GRA        0.000000
   2465  C         17.1923   21.2700    6.7000   CA 2465  GRA        0.000000
   2466  C         15.9643   21.9790    6.7000   CA 2466  GRA        0.000000
   2467  C         15.9643   23.3970    6.7000   CA 2467  GRA        0.000000
   2468  C         17.1923   24.1060    6.7000   CA 2468  GRA        0.000000
   2469  C         19.6484   21.2700    6.7000   CA 2469  GRA        0.000000
   2470  C         18.4204   21.9790    6.7000   CA 2470  GRA        0.000000
   2471  C         18.4204   23.3970    6.7000   CA 2471  GRA        0.000000
   2472  C         19.6484   24.1060    6.7000   CA 2472  GRA        0.000000
   2473  C         22.1044   21.2700    6.7000   CA 2473  GRA        0.000000
   2474  C         20.8764   21.9790    6.7000   CA 2474  GRA        0.000000
   2475  C         20.8764   23.3970    6.7000   CA 2475  GRA        0.000000
   2476  C         22.1044   24.1060    6.7000   CA 2476  GRA        0.000000
   2477  C         24.5605   21.2700    6.7000   CA 2477  GRA        0.000000
   2478  C         23.3325   21.9790    6.7000   CA 2478  GRA        0.000000
   2479  C         23.3325   23.3970    6.7000   CA 2479  GRA        0.000000
   2480  C         24.5605   24.1060    6.7000   CA 2480  GRA        0.000000
   2481  C         27.0165   21.2700    6.7000   CA 2481  GRA        0.000000
   2482  C         25.7885   21.9790    6.7000   CA 2482  GRA        0.000000
   2483  C         25.7885   23.3970    6.7000   CA 2483  GRA        0.000000
   2484  C         27.0165   24.1060    6.7000   CA 2484  GRA        0.000000
   2485  C         29.4726   21.2700    6.7000   CA 2485  GRA        0.000000
   2486  C         28.2446   21.9790    6.7000   CA 2486  GRA        0.000000
   2487  C         28.2446   23.3970    6.7000   CA 2487  GRA        0.000000
   2488  C         29.4726   24.1060    6.7000   CA 2488  GRA        0.000000
   2489  C         31.9286   21.2700    6.7000   CA 2489  GRA        0.000000
   2490  C         30.7006   21.9790    6.7000   CA 2490  GRA        0.000000
   2491  C         30.7006   23.3970    6.7000   CA 2491  GRA        0.000000
   2492  C         31.9286   24.1060    6.7000   CA 2492  GRA        0.000000
   2493  C         34.3847   21.2700    6.7000   CA 2493  GRA        0.000000
   2494  C         33.1566   21.9790    6.7000   CA 2494  GRA        0.000000
   2495  C         33.1566   23.3970    6.7000   CA 2495  GRA        0.000000
   2496  C         34.3847   24.1060    6.7000   CA 2496  GRA        0.000000
   2497  C         36.8407   21.2700    6.7000   CA 2497  GRA        0.000000
   2498  C         35.6127   21.9790    6.7000   CA 2498  GRA        0.000000
   2499  C         35.6127   23.3970    6.7000   CA 2499  GRA        0.000000
   2500  C         36.8407   24.1060    6.7000   CA 2500  GRA        0.000000
   2501  C         39.2968   21.2700    6.7000   CA 2501  GRA        0.000000
   2502  C         38.0687   21.9790    6.7000   CA 2502  GRA        0.000000
   2503  C         38.0687   23.3970    6.7000   CA 2503  GRA        0.000000
   2504  C         39.2968   24.1060    6.7000   CA 2504  GRA        0.000000
   2505  C         41.7528   21.2700    6.7000   CA 2505  GRA        0.000000
   2506  C         40.5248   21.9790    6.7000   CA 2506  GRA        0.000000
   2507  C         40.5248   23.3970    6.7000   CA 2507  GRA        0.000000
   2508  C         41.7528   24.1060    6.7000   CA 2508  GRA        0.000000
   2509  C         44.2089   21.2700    6.7000   CA 2509  GRA        0.000000
   2510  C         42.9808   21.9790    6.7000   CA 2510  GRA        0.000000
   2511  C         42.9808   23.3970    6.7000   CA 2511  GRA        0.000000
   2512  C         44.2089   24.1060    6.7000   CA 2512  GRA        0.000000
   2513  C         46.6649   21.2700    6.7000   CA 2513  GRA        0.000000
   2514  C         45.4369   21.9790    6.7000   CA 2514  GRA        0.000000
   2515  C         45.4369   23.3970    6.7000   CA 2515  GRA        0.000000
   2516  C         46.6649   24.1060    6.7000   CA 2516  GRA        0.000000
   2517  C         49.1210   21.2700    6.7000   CA 2517  GRA        0.000000
   2518  C         47.8929   21.9790    6.7000   CA 2518  GRA        0.000000
   2519  C         47.8929   23.3970    6.7000   CA 2519  GRA        0.000000
   2520  C         49.1210   24.1060    6.7000   CA 2520  GRA        0.000000
   2521  C          0.0000   25.5240    6.7000   CA 2521  GRA        0.000000
   2522  C         -1.2280   26.2330    6.7000   CA 2522  GRA        0.000000
   2523  C         -1.2280   27.6510    6.7000   CA 2523  GRA        0.000000
   2524  C          0.0000   28.3600    6.7000   CA 2524  GRA        0.000000
   2525  C          2.4560   25.5240    6.7000   CA 2525  GRA        0.000000
   2526  C          1.2280   26.2330    6.7000   CA 2526  GRA        0.000000
   2527  C          1.2280   27.6510    6.7000   CA 2527  GRA        0.000000
   2528  C          2.4560   28.3600    6.7000   CA 2528  GRA        0.000000
   2529  C          4.9121   25.5240    6.7000   CA 2529  GRA        0.000000
   2530  C          3.6841   26.2330    6.7000   CA 2530  GRA        0.000000
   2531  C          3.6841   27.6510    6.7000   CA 2531  GRA        0.000000
   2532  C          4.9121   28.3600    6.7000   CA 2532  GRA        0.000000
   2533  C          7.3681   25.5240    6.7000   CA 2533  GRA        0.000000
   2534  C          6.1401   26.2330    6.7000   CA 2534  GRA        0.000000
   2535  C          6.1401   27.6510    6.7000   CA 2535  GRA        0.000000
   2536  C          7.3681   28.3600    6.7000   CA 2536  GRA        0.000000
   2537  C          9.8242   25.5240    6.7000   CA 2537  GRA        0.000000
   2538  C          8.5962   26.2330    6.7000   CA 2538  GRA        0.000000
   2539  C          8.5962   27.6510    6.7000   CA 2539  GRA        0.000000
   2540  C          9.8242   28.3600    6.7000   CA 2540  GRA        0.000000
   2541  C         12.2802   25.5240    6.7000   CA 2541  GRA        0.000000
   2542  C         11.0522   26.2330    6.7000   CA 2542  GRA        0.000000
   2543  C         11.0522   27.6510    6.7000   CA 2543  GRA        0.000000
   2544  C         12.2802   28.3600    6.7000   CA 2544  GRA        0.000000
   2545  C         14.7363   25.5240    6.7000   CA 2545  GRA        0.000000
   2546  C         13.5083   26.2330    6.7000   CA 2546  GRA        0.000000
   2547  C         13.5083   27.6510    6.7000   CA 2547  GRA        0.000000
   2548  C         14.7363   28.3600    6.7000   CA 2548  GRA        0.000000
   2549  C         17.1923   25.5240    6.7000   CA 2549  GRA        0.000000
   2550  C         15.9643   26.2330    6.7000   CA 2550  GRA        0.000000
   2551  C         15.9643   27.6510    6.7000   CA 2551  GRA        0.000000
   2552  C         17.1923   28.3600    6.7000   CA 2552  GRA        0.000000
   2553  C         19.6484   25.5240    6.7000   CA 2553  GRA        0.000000
   2554  C         18.4204   26.2330    6.7000   CA 2554  GRA        0.000000
   2555  C         18.4204   27.6510    6.7000   CA 2555  GRA        0.000000
   2556  C         19.6484   28.3600    6.7000   CA 2556  GRA        0.000000
   2557  C         22.1044   25.5240    6.7000   CA 2557  GRA        0.000000
   2558  C         20.8764   26.2330    6.7000   CA 2558  GRA        0.000000
   2559  C         20.8764   27.6510    6.7000   CA 2559  GRA        0.000000
   2560  C         22.1044   28.3600    6.7000   CA 2560  GRA        0.000000
   2561  C         24.5605   25.5240    6.7000   CA 2561  GRA        0.000000
   2562  C         23.3325   26.2330    6.7000   CA 2562  GRA        0.000000
   2563  C         23.3325   27.6510    6.7000   CA 2563  GRA        0.000000
   2564  C         24.5605   28.3600    6.7000   CA 2564  GRA        0.000000
   2565  C         27.0165   25.5240    6.7000   CA 2565  GRA        0.000000
   2566  C         25.7885   26.2330    6.7000   CA 2566  GRA        0.000000
   2567  C         25.7885   27.6510    6.7000   CA 2567  GRA        0.000000
   2568  C         27.0165   28.3600    6.7000   CA 2568  GRA        0.000000
   2569  C         29.4726   25.5240    6.7000   CA 2569  GRA        0.000000
   2570  C         28.2446   26.2330    6.7000   CA 2570  GRA        0.000000
   2571  C         28.2446   27.6510    6.7000   CA 2571  GRA        0.000000
   2572  C         29.4726   28.3600    6.7000   CA 2572  GRA        0.000000
   2573  C         31.9286   25.5240    6.7000   CA 2573  GRA        0.000000
   2574  C         30.7006   26.2330    6.7000   CA 2574  GRA        0.000000
   2575  C         30.7006   27.6510    6.7000   CA 2575  GRA        0.000000
   2576  C         31.9286   28.3600    6.7000   CA 2576  GRA        0.000000
   2577  C         34.3847   25.5240    6.7000   CA 2577  GRA        0.000000
   2578  C         33.1566   26.2330    6.7000   CA 2578  GRA        0.000000
   2579  C         33.1566   27.6510    6.7000   CA 2579  GRA        0.000000
   2580  C         34.3847   28.3600    6.7000   CA 2580  GRA        0.000000
   2581  C         36.8407   25.5240    6.7000   CA 2581  GRA        0.000000
   2582  C         35.6127   26.2330    6.7000   CA 2582  GRA        0.000000
   2583  C         35.6127   27.6510    6.7000   CA 2583  GRA        0.000000
   2584  C         36.8407   28.3600    6.7000   CA 2584  GRA        0.000000
   2585  C         39.2968   25.5240    6.7000   CA 2585  GRA        0.000000
   2586  C         38.0687   26.2330    6.7000   CA 2586  GRA        0.000000
   2587  C         38.0687   27.6510    6.7000   CA 2587  GRA        0.000000
   2588  C         39.2968   28.3600    6.7000   CA 2588  GRA        0.000000
   2589  C         41.7528   25.5240    6.7000   CA 2589  GRA        0.000000
   2590  C         40.5248   26.2330    6.7000   CA 2590  GRA        0.000000
   2591  C         40.5248   27.6510    6.7000   CA 2591  GRA        0.000000
   2592  C         41.7528   28.3600    6.7000   CA 2592  GRA        0.000000
   2593  C         44.2089   25.5240    6.7000   CA 2593  GRA        0.000000
   2594  C         42.9808   26.2330    6.7000   CA 2594  GRA        0.000000
   2595  C         42.9808   27.6510    6.7000   CA 2595  GRA        0.000000
   2596  C         44.2089   28.3600    6.7000   CA 2596  GRA        0.000000
   2597  C         46.6649   25.5240    6.7000   CA 2597  GRA        0.000000
   2598  C         45.4369   26.2330    6.7000   CA 2598  GRA        0.000000
   2599  C         45.4369   27.6510    6.7000   CA 2599  GRA        0.000000
   2600  C         46.6649   28.3600    6.7000   CA 2600  GRA        0.000000
   2601  C         49.1210   25.5240    6.7000   CA 2601  GRA        0.000000
   2602  C         47.8929   26.2330    6.7000   CA 2602  GRA        0.000000
   2603  C         47.8929   27.6510    6.7000   CA 2603  GRA        0.000000
   2604  C         49.1210   28.3600    6.7000   CA 2604  GRA        0.000000
   2605  C          0.0000   29.7780    6.7000   CA 2605  GRA        0.000000
   2606  C         -1.2280   30.4870    6.7000   CA 2606  GRA        0.000000
   2607  C         -1.2280   31.9050    6.7000   CA 2607  GRA        0.000000
   2608  C          0.0000   32.6140    6.7000   CA 2608  GRA        0.000000
   2609  C          2.4560   29.7780    6.7000   CA 2609  GRA        0.000000
   2610  C          1.2280   30.4870    6.7000   CA 2610  GRA        0.000000
   2611  C          1.2280   31.9050    6.7000   CA 2611  GRA        0.000000
   2612  C          2.4560   32.6140    6.7000   CA 2612  GRA        0.000000
   2613  C          4.9121   29.7780    6.7000   CA 2613  GRA        0.000000
   2614  C          3.6841   30.4870    6.7000   CA 2614  GRA        0.000000
   2615  C          3.6841   31.9050    6.7000   CA 2615  GRA        0.000000
   2616  C          4.9121   32.6140    6.7000   CA 2616  GRA        0.000000
   2617  C          7.3681   29.7780    6.7000   CA 2617  GRA        0.000000
   2618  C          6.1401   30.4870    6.7000   CA 2618  GRA        0.000000
   2619  C          6.1401   31.9050    6.7000   CA 2619  GRA        0.000000
   2620  C          7.3681   32.6140    6.7000   CA 2620  GRA        0.000000
   2621  C          9.8242   29.7780    6.7000   CA 2621  GRA        0.000000
   2622  C          8.5962   30.4870    6.7000   CA 2622  GRA        0.000000
   2623  C          8.5962   31.9050    6.7000   CA 2623  GRA        0.000000
   2624  C          9.8242   32.6140    6.7000   CA 2624  GRA        0.000000
   2625  C         12.2802   29.7780    6.7000   CA 2625  GRA        0.000000
   2626  C         11.0522   30.4870    6.7000   CA 2626  GRA        0.000000
   2627  C         11.0522   31.9050    6.7000   CA 2627  GRA        0.000000
   2628  C         12.2802   32.6140    6.7000   CA 2628  GRA        0.000000
   2629  C         14.7363   29.7780    6.7000   CA 2629  GRA        0.000000
   2630  C         13.5083   30.4870    6.7000   CA 2630  GRA        0.000000
   2631  C         13.5083   31.9050    6.7000   CA 2631  GRA        0.000000
   2632  C         14.7363   32.6140    6.7000   CA 2632  GRA        0.000000
   2633  C         17.1923   29.7780    6.7000   CA 2633  GRA        0.000000
   2634  C         15.9643   30.4870    6.7000   CA 2634  GRA        0.000000
   2635  C         15.9643   31.9050    6.7000   CA 2635  GRA        0.000000
   2636  C         17.1923   32.6140    6.7000   CA 2636  GRA        0.000000
   2637  C         19.6484   29.7780    6.7000   CA 2637  GRA        0.000000
   2638  C         18.4204   30.4870    6.7000   CA 2638  GRA        0.000000
   2639  C         18.4204   31.9050    6.7000   CA 2639  GRA        0.000000
   2640  C         19.6484   32.6140    6.7000   CA 2640  GRA        0.000000
   2641  C         22.1044   29.7780    6.7000   CA 2641  GRA        0.000000
   2642  C         20.8764   30.4870    6.7000   CA 2642  GRA        0.000000
   2643  C         20.8764   31.9050    6.7000   CA 2643  GRA        0.000000
   2644  C         22.1044   32.6140    6.7000   CA 2644  GRA        0.000000
   2645  C         24.5605   29.7780    6.7000   CA 2645  GRA        0.000000
   2646  C         23.3325   30.4870    6.7000   CA 2646  GRA        0.000000
   2647  C         23.3325   31.9050    6.7000   CA 2647  GRA        0.000000
   2648  C         24.5605   32.6140    6.7000   CA 2648  GRA        0.000000
   2649  C         27.0165   29.7780    6.7000   CA 2649  GRA        0.000000
   2650  C         25.7885   30.4870    6.7000   CA 2650  GRA        0.000000
   2651  C         25.7885   31.9050    6.7000   CA 2651  GRA        0.000000
   2652  C         27.0165   32.6140    6.7000   CA 2652  GRA        0.000000
   2653  C         29.4726   29.7780    6.7000   CA 2653  GRA        0.000000
   2654  C         28.2446   30.4870    6.7000   CA 2654  GRA        0.000000
   2655  C         28.2446   31.9050    6.7000   CA 2655  GRA        0.000000
   2656  C         29.4726   32.6140    6.7000   CA 2656  GRA        0.000000
   2657  C         31.9286   29.7780    6.7000   CA 2657  GRA        0.000000
   2658  C         30.7006   30.4870    6.7000   CA 2658  GRA        0.000000
   2659  C         30.7006   31.9050    6.7000   CA 2659  GRA        0.000000
   2660  C         31.9286   32.6140    6.7000   CA 2660  GRA        0.000000
   2661  C         34.3847   29.7780    6.7000   CA 2661  GRA        0.000000
   2662  C         33.1566   30.4870    6.7000   CA 2662  GRA        0.000000
   2663  C         33.1566   31.9050    6.7000   CA 2663  GRA        0.000000
   2664  C         34.3847   32.6140    6.7000   CA 2664  GRA        0.000000
   2665  C         36.8407   29.7780    6.7000   CA 2665  GRA        0.000000
   2666  C         35.6127   30.4870    6.7000   CA 2666  GRA        0.000000
   2667  C         35.6127   31.9050    6.7000   CA 2667  GRA        0.000000
   2668  C         36.8407   32.6140    6.7000   CA 2668  GRA        0.000000
   2669  C         39.2968   29.7780    6.7000   CA 2669  GRA        0.000000
   2670  C         38.0687   30.4870    6.7000   CA 2670  GRA        0.000000
   2671  C         38.0687   31.9050    6.7000   CA 2671  GRA        0.000000
   2672  C         39.2968   32.6140    6.7000   CA 2672  GRA        0.000000
   2673  C         41.7528   29.7780    6.7000   CA 2673  GRA        0.000000
   2674  C         40.5248   30.4870    6.7000   CA 2674  GRA        0.000000
   2675  C         40.5248   31.9050    6.7000   CA 2675  GRA        0.000000
   2676  C         41.7528   32.6140    6.7000   CA 2676  GRA        0.000000
   2677  C         44.2089   29.7780    6.7000   CA 2677  GRA        0.000000
   2678  C         42.9808   30.4870    6.7000   CA 2678  GRA        0.000000
   2679  C         42.9808   31.9050    6.7000   CA 2679  GRA        0.000000
   2680  C         44.2089   32.6140    6.7000   CA 2680  GRA        0.000000
   2681  C         46.6649   29.7780    6.7000   CA 2681  GRA        0.000000
   2682  C         45.4369   30.4870    6.7000   CA 2682  GRA        0.000000
   2683  C         45.4369   31.9050    6.7000   CA 2683  GRA        0.000000
   2684  C         46.6649   32.6140    6.7000   CA 2684  GRA        0.000000
   2685  C         49.1210   29.7780    6.7000   CA 2685  GRA        0.000000
   2686  C         47.8929   30.4870    6.7000   CA 2686  GRA        0.000000
   2687  C         47.8929   31.9050    6.7000   CA 2687  GRA        0.000000
   2688  C         49.1210   32.6140    6.7000   CA 2688  GRA        0.000000
   2689  C          0.0000   34.0320    6.7000   CA 2689  GRA        0.000000
   2690  C         -1.2280   34.7410    6.7000   CA 2690  GRA        0.000000
   2691  C         -1.2280   36.1590    6.7000   CA 2691  GRA        0.000000
   2692  C          0.0000   36.8680    6.7000   CA 2692  GRA        0.000000
   2693  C          2.4560   34.0320    6.7000   CA 2693  GRA        0.000000
   2694  C          1.2280   34.7410    6.7000   CA 2694  GRA        0.000000
   2695  C          1.2280   36.1590    6.7000   CA 2695  GRA        0.000000
   2696  C          2.4560   36.8680    6.7000   CA 2696  GRA        0.000000
   2697  C          4.9121   34.0320    6.7000   CA 2697  GRA        0.000000
   2698  C          3.6841   34.7410    6.7000   CA 2698  GRA        0.000000
   2699  C          3.6841   36.1590    6.7000   CA 2699  GRA        0.000000
   2700  C          4.9121   36.8680    6.7000   CA 2700  GRA        0.000000
   2701  C          7.3681   34.0320    6.7000   CA 2701  GRA        0.000000
   2702  C          6.1401   34.7410    6.7000   CA 2702  GRA        0.000000
   2703  C          6.1401   36.1590    6.7000   CA 2703  GRA        0.000000
   2704  C          7.3681   36.8680    6.7000   CA 2704  GRA        0.000000
   2705  C          9.8242   34.0320    6.7000   CA 2705  GRA        0.000000
   2706  C          8.5962   34.7410    6.7000   CA 2706  GRA        0.000000
   2707  C          8.5962   36.1590    6.7000   CA 2707  GRA        0.000000
   2708  C          9.8242   36.8680    6.7000   CA 2708  GRA        0.000000
   2709  C         12.2802   34.0320    6.7000   CA 2709  GRA        0.000000
   2710  C         11.0522   34.7410    6.7000   CA 2710  GRA        0.000000
   2711  C         11.0522   36.1590    6.7000   CA 2711  GRA        0.000000
   2712  C         12.2802   36.8680    6.7000   CA 2712  GRA        0.000000
   2713  C         14.7363   34.0320    6.7000   CA 2713  GRA        0.000000
   2714  C         13.5083   34.7410    6.7000   CA 2714  GRA        0.000000
   2715  C         13.5083   36.1590    6.7000   CA 2715  GRA        0.000000
   2716  C         14.7363   36.8680    6.7000   CA 2716  GRA        0.000000
   2717  C         17.1923   34.0320    6.7000   CA 2717  GRA        0.000000
   2718  C         15.9643   34.7410    6.7000   CA 2718  GRA        0.000000
   2719  C         15.9643   36.1590    6.7000   CA 2719  GRA        0.000000
   2720  C         17.1923   36.8680    6.7000   CA 2720  GRA        0.000000
   2721  C         19.6484   34.0320    6.7000   CA 2721  GRA        0.000000
   2722  C         18.4204   34.7410    6.7000   CA 2722  GRA        0.000000
   2723  C         18.4204   36.1590    6.7000   CA 2723  GRA        0.000000
   2724  C         19.6484   36.8680    6.7000   CA 2724  GRA        0.000000
   2725  C         22.1044   34.0320    6.7000   CA 2725  GRA        0.000000
   2726  C         20.8764   34.7410    6.7000   CA 2726  GRA        0.000000
   2727  C         20.8764   36.1590    6.7000   CA 2727  GRA        0.000000
   2728  C         22.1044   36.8680    6.7000   CA 2728  GRA        0.000000
   2729  C         24.5605   34.0320    6.7000   CA 2729  GRA        0.000000
   2730  C         23.3325   34.7410    6.7000   CA 2730  GRA        0.000000
   2731  C         23.3325   36.1590    6.7000   CA 2731  GRA        0.000000
   2732  C         24.5605   36.8680    6.7000   CA 2732  GRA        0.000000
   2733  C         27.0165   34.0320    6.7000   CA 2733  GRA        0.000000
   2734  C         25.7885   34.7410    6.7000   CA 2734  GRA        0.000000
   2735  C         25.7885   36.1590    6.7000   CA 2735  GRA        0.000000
   2736  C         27.0165   36.8680    6.7000   CA 2736  GRA        0.000000
   2737  C         29.4726   34.0320    6.7000   CA 2737  GRA        0.000000
   2738  C         28.2446   34.7410    6.7000   CA 2738  GRA        0.000000
   2739  C         28.2446   36.1590    6.7000   CA 2739  GRA        0.000000
   2740  C         29.4726   36.8680    6.7000   CA 2740  GRA        0.000000
   2741  C         31.9286   34.0320    6.7000   CA 2741  GRA        0.000000
   2742  C         30.7006   34.7410    6.7000   CA 2742  GRA        0.000000
   2743  C         30.7006   36.1590    6.7000   CA 2743  GRA        0.000000
   2744  C         31.9286   36.8680    6.7000   CA 2744  GRA        0.000000
   2745  C         34.3847   34.0320    6.7000   CA 2745  GRA        0.000000
   2746  C         33.1566   34.7410    6.7000   CA 2746  GRA        0.000000
   2747  C         33.1566   36.1590    6.7000   CA 2747  GRA        0.000000
   2748  C         34.3847   36.8680    6.7000   CA 2748  GRA        0.000000
   2749  C         36.8407   34.0320    6.7000   CA 2749  GRA        0.000000
   2750  C         35.6127   34.7410    6.7000   CA 2750  GRA        0.000000
   2751  C         35.6127   36.1590    6.7000   CA 2751  GRA        0.000000
   2752  C         36.8407   36.8680    6.7000   CA 2752  GRA        0.000000
   2753  C         39.2968   34.0320    6.7000   CA 2753  GRA        0.000000
   2754  C         38.0687   34.7410    6.7000   CA 2754  GRA        0.000000
   2755  C         38.0687   36.1590    6.7000   CA 2755  GRA        0.000000
   2756  C         39.2968   36.8680    6.7000   CA 2756  GRA        0.000000
   2757  C         41.7528   34.0320    6.7000   CA 2757  GRA        0.000000
   2758  C         40.5248   34.7410    6.7000   CA 2758  GRA        0.000000
   2759  C         40.5248   36.1590    6.7000   CA 2759  GRA        0.000000
   2760  C         41.7528   36.8680    6.7000   CA 2760  GRA        0.000000
   2761  C         44.2089   34.0320    6.7000   CA 2761  GRA        0.000000
   2762  C         42.9808   34.7410    6.7000   CA 2762  GRA        0.000000
   2763  C         42.9808   36.1590    6.7000   CA 2763  GRA        0.000000
   2764  C         44.2089   36.8680    6.7000   CA 2764  GRA        0.000000
   2765  C         46.6649   34.0320    6.7000   CA 2765  GRA        0.000000
   2766  C         45.4369   34.7410    6.7000   CA 2766  GRA        0.000000
   2767  C         45.4369   36.1590    6.7000   CA 2767  GRA        0.000000
   2768  C         46.6649   36.8680    6.7000   CA 2768  GRA        0.000000
   2769  C         49.1210   34.0320    6.7000   CA 2769  GRA        0.000000
   2770  C         47.8929   34.7410    6.7000   CA 2770  GRA        0.000000
   2771  C         47.8929   36.1590    6.7000   CA 2771  GRA        0.000000
   2772  C         49.1210   36.8680    6.7000   CA 2772  GRA        0.000000
   2773  C          0.0000   38.2860    6.7000   CA 2773  GRA        0.000000
   2774  C         -1.2280   38.9950    6.7000   CA 2774  GRA        0.000000
   2775  C         -1.2280   40.4130    6.7000   CA 2775  GRA        0.000000
   2776  C          0.0000   41.1220    6.7000   CA 2776  GRA        0.000000
   2777  C          2.4560   38.2860    6.7000   CA 2777  GRA        0.000000
   2778  C          1.2280   38.9950    6.7000   CA 2778  GRA        0.000000
   2779  C          1.2280   40.4130    6.7000   CA 2779  GRA        0.000000
   2780  C          2.4560   41.1220    6.7000   CA 2780  GRA        0.000000
   2781  C          4.9121   38.2860    6.7000   CA 2781  GRA        0.000000
   2782  C          3.6841   38.9950    6.7000   CA 2782  GRA        0.000000
   2783  C          3.6841   40.4130    6.7000   CA 2783  GRA        0.000000
   2784  C          4.9121   41.1220    6.7000   CA 2784  GRA        0.000000
   2785  C          7.3681   38.2860    6.7000   CA 2785  GRA        0.000000
   2786  C          6.1401   38.9950    6.7000   CA 2786  GRA        0.000000
   2787  C          6.1401   40.4130    6.7000   CA 2787  GRA        0.000000
   2788  C          7.3681   41.1220    6.7000   CA 2788  GRA        0.000000
   2789  C          9.8242   38.2860    6.7000   CA 2789  GRA        0.000000
   2790  C          8.5962   38.9950    6.7000   CA 2790  GRA        0.000000
   2791  C          8.5962   40.4130    6.7000   CA 2791  GRA        0.000000
   2792  C          9.8242   41.1220    6.7000   CA 2792  GRA        0.000000
   2793  C         12.2802   38.2860    6.7000   CA 2793  GRA        0.000000
   2794  C         11.0522   38.9950    6.7000   CA 2794  GRA        0.000000
   2795  C         11.0522   40.4130    6.7000   CA 2795  GRA        0.000000
   2796  C         12.2802   41.1220    6.7000   CA 2796  GRA        0.000000
   2797  C         14.7363   38.2860    6.7000   CA 2797  GRA        0.000000
   2798  C         13.5083   38.9950    6.7000   CA 2798  GRA        0.000000
   2799  C         13.5083   40.4130    6.7000   CA 2799  GRA        0.000000
   2800  C         14.7363   41.1220    6.7000   CA 2800  GRA        0.000000
   2801  C         17.1923   38.2860    6.7000   CA 2801  GRA        0.000000
   2802  C         15.9643   38.9950    6.7000   CA 2802  GRA        0.000000
   2803  C         15.9643   40.4130    6.7000   CA 2803  GRA        0.000000
   2804  C         17.1923   41.1220    6.7000   CA 2804  GRA        0.000000
   2805  C         19.6484   38.2860    6.7000   CA 2805  GRA        0.000000
   2806  C         18.4204   38.9950    6.7000   CA 2806  GRA        0.000000
   2807  C         18.4204   40.4130    6.7000   CA 2807  GRA        0.000000
   2808  C         19.6484   41.1220    6.7000   CA 2808  GRA        0.000000
   2809  C         22.1044   38.2860    6.7000   CA 2809  GRA        0.000000
   2810  C         20.8764   38.9950    6.7000   CA 2810  GRA        0.000000
   2811  C         20.8764   40.4130    6.7000   CA 2811  GRA        0.000000
   2812  C         22.1044   41.1220    6.7000   CA 2812  GRA        0.000000
   2813  C         24.5605   38.2860    6.7000   CA 2813  GRA        0.000000
   2814  C         23.3325   38.9950    6.7000   CA 2814  GRA        0.000000
   2815  C         23.3325   40.4130    6.7000   CA 2815  GRA        0.000000
   2816  C         24.5605   41.1220    6.7000   CA 2816  GRA        0.000000
   2817  C         27.0165   38.2860    6.7000   CA 2817  GRA        0.000000
   2818  C         25.7885   38.9950    6.7000   CA 2818  GRA        0.000000
   2819  C         25.7885   40.4130    6.7000   CA 2819  GRA        0.000000
   2820  C         27.0165   41.1220    6.7000   CA 2820  GRA        0.000000
   2821  C         29.4726   38.2860    6.7000   CA 2821  GRA        0.000000
   2822  C         28.2446   38.9950    6.7000   CA 2822  GRA        0.000000
   2823  C         28.2446   40.4130    6.7000   CA 2823  GRA        0.000000
   2824  C         29.4726   41.1220    6.7000   CA 2824  GRA        0.000000
   2825  C         31.9286   38.2860    6.7000   CA 2825  GRA        0.000000
   2826  C         30.7006   38.9950    6.7000   CA 2826  GRA        0.000000
   2827  C         30.7006   40.4130    6.7000   CA 2827  GRA        0.000000
   2828  C         31.9286   41.1220    6.7000   CA 2828  GRA        0.000000
   2829  C         34.3847   38.2860    6.7000   CA 2829  GRA        0.000000
   2830  C         33.1566   38.9950    6.7000   CA 2830  GRA        0.000000
   2831  C         33.1566   40.4130    6.7000   CA 2831  GRA        0.000000
   2832  C         34.3847   41.1220    6.7000   CA 2832  GRA        0.000000
   2833  C         36.8407   38.2860    6.7000   CA 2833  GRA        0.000000
   2834  C         35.6127   38.9950    6.7000   CA 2834  GRA        0.000000
   2835  C         35.6127   40.4130    6.7000   CA 2835  GRA        0.000000
   2836  C         36.8407   41.1220    6.7000   CA 2836  GRA        0.000000
   2837  C         39.2968   38.2860    6.7000   CA 2837  GRA        0.000000
   2838  C         38.0687   38.9950    6.7000   CA 2838  GRA        0.000000
   2839  C         38.0687   40.4130    6.7000   CA 2839  GRA        0.000000
   2840  C         39.2968   41.1220    6.7000   CA 2840  GRA        0.000000
   2841  C         41.7528   38.2860    6.7000   CA 2841  GRA        0.000000
   2842  C         40.5248   38.9950    6.7000   CA 2842  GRA        0.000000
   2843  C         40.5248   40.4130    6.7000   CA 2843  GRA        0.000000
   2844  C         41.7528   41.1220    6.7000   CA 2844  GRA        0.000000
   2845  C         44.2089   38.2860    6.7000   CA 2845  GRA        0.000000
   2846  C         42.9808   38.9950    6.7000   CA 2846  GRA        0.000000
   2847  C         42.9808   40.4130    6.7000   CA 2847  GRA        0.000000
   2848  C         44.2089   41.1220    6.7000   CA 2848  GRA        0.000000
   2849  C         46.6649   38.2860    6.7000   CA 2849  GRA        0.000000
   2850  C         45.4369   38.9950    6.7000   CA 2850  GRA        0.000000
   2851  C         45.4369   40.4130    6.7000   CA 2851  GRA        0.000000
   2852  C         46.6649   41.1220    6.7000   CA 2852  GRA        0.000000
   2853  C         49.1210   38.2860    6.7000   CA 2853  GRA        0.000000
   2854  C         47.8929   38.9950    6.7000   CA 2854  GRA        0.000000
   2855  C         47.8929   40.4130    6.7000   CA 2855  GRA        0.000000
   2856  C         49.1210   41.1220    6.7000   CA 2856  GRA        0.000000
   2857  C          0.0000   42.5400    6.7000   CA 2857  GRA        0.000000
   2858  C         -1.2280   43.2490    6.7000   CA 2858  GRA        0.000000
   2859  C         -1.2280   44.6670    6.7000   CA 2859  GRA        0.000000
   2860  C          0.0000   45.3760    6.7000   CA 2860  GRA        0.000000
   2861  C          2.4560   42.5400    6.7000   CA 2861  GRA        0.000000
   2862  C          1.2280   43.2490    6.7000   CA 2862  GRA        0.000000
   2863  C          1.2280   44.6670    6.7000   CA 2863  GRA        0.000000
   2864  C          2.4560   45.3760    6.7000   CA 2864  GRA        0.000000
   2865  C          4.9121   42.5400    6.7000   CA 2865  GRA        0.000000
   2866  C          3.6841   43.2490    6.7000   CA 2866  GRA        0.000000
   2867  C          3.6841   44.6670    6.7000   CA 2867  GRA        0.000000
   2868  C          4.9121   45.3760    6.7000   CA 2868  GRA        0.000000
   2869  C          7.3681   42.5400    6.7000   CA 2869  GRA        0.000000
   2870  C          6.1401   43.2490    6.7000   CA 2870  GRA        0.000000
   2871  C          6.1401   44.6670    6.7000   CA 2871  GRA        0.000000
   2872  C          7.3681   45.3760    6.7000   CA 2872  GRA        0.000000
   2873  C          9.8242   42.5400    6.7000   CA 2873  GRA        0.000000
   2874  C          8.5962   43.2490    6.7000   CA 2874  GRA        0.000000
   2875  C          8.5962   44.6670    6.7000   CA 2875  GRA        0.000000
   2876  C          9.8242   45.3760    6.7000   CA 2876  GRA        0.000000
   2877  C         12.2802   42.5400    6.7000   CA 2877  GRA        0.000000
   2878  C         11.0522   43.2490    6.7000   CA 2878  GRA        0.000000
   2879  C         11.0522   44.6670    6.7000   CA 2879  GRA        0.000000
   2880  C         12.2802   45.3760    6.7000   CA 2880  GRA        0.000000
   2881  C         14.7363   42.5400    6.7000   CA 2881  GRA        0.000000
   2882  C         13.5083   43.2490    6.7000   CA 2882  GRA        0.000000
   2883  C         13.5083   44.6670    6.7000   CA 2883  GRA        0.000000
   2884  C         14.7363   45.3760    6.7000   CA 2884  GRA        0.000000
   2885  C         17.1923   42.5400    6.7000   CA 2885  GRA        0.000000
   2886  C         15.9643   43.2490    6.7000   CA 2886  GRA        0.000000
   2887  C         15.9643   44.6670    6.7000   CA 2887  GRA        0.000000
   2888  C         17.1923   45.3760    6.7000   CA 2888  GRA        0.000000
   2889  C         19.6484   42.5400    6.7000   CA 2889  GRA        0.000000
   2890  C         18.4204   43.2490    6.7000   CA 2890  GRA        0.000000
   2891  C         18.4204   44.6670    6.7000   CA 2891  GRA        0.000000
   2892  C         19.6484   45.3760    6.7000   CA 2892  GRA        0.000000
   2893  C         22.1044   42.5400    6.7000   CA 2893  GRA        0.000000
   2894  C         20.8764   43.2490    6.7000   CA 2894  GRA        0.000000
   2895  C         20.8764   44.6670    6.7000   CA 2895  GRA        0.000000
   2896  C         22.1044   45.3760    6.7000   CA 2896  GRA        0.000000
   2897  C         24.5605   42.5400    6.7000   CA 2897  GRA        0.000000
   2898  C         23.3325   43.2490    6.7000   CA 2898  GRA        0.000000
   2899  C         23.3325   44.6670    6.7000   CA 2899  GRA        0.000000
   2900  C         24.5605   45.3760    6.7000   CA 2900  GRA        0.000000
   2901  C         27.0165   42.5400    6.7000   CA 2901  GRA        0.000000
   2902  C         25.7885   43.2490    6.7000   CA 2902  GRA        0.000000
   2903  C         25.7885   44.6670    6.7000   CA 2903  GRA        0.000000
   2904  C         27.0165   45.3760    6.7000   CA 2904  GRA        0.000000
   2905  C         29.4726   42.5400    6.7000   CA 2905  GRA        0.000000
   2906  C         28.2446   43.2490    6.7000   CA 2906  GRA        0.000000
   2907  C         28.2446   44.6670    6.7000   CA 2907  GRA        0.000000
   2908  C         29.4726   45.3760    6.7000   CA 2908  GRA        0.000000
   2909  C         31.9286   42.5400    6.7000   CA 2909  GRA        0.000000
   2910  C         30.7006   43.2490    6.7000   CA 2910  GRA        0.000000
   2911  C         30.7006   44.6670    6.7000   CA 2911  GRA        0.000000
   2912  C         31.9286   45.3760    6.7000   CA 2912  GRA        0.000000
   2913  C         34.3847   42.5400    6.7000   CA 2913  GRA        0.000000
   2914  C         33.1566   43.2490    6.7000   CA 2914  GRA        0.000000
   2915  C         33.1566   44.6670    6.7000   CA 2915  GRA        0.000000
   2916  C         34.3847   45.3760    6.7000   CA 2916  GRA        0.000000
   2917  C         36.8407   42.5400    6.7000   CA 2917  GRA        0.000000
   2918  C         35.6127   43.2490    6.7000   CA 2918  GRA        0.000000
   2919  C         35.6127   44.6670    6.7000   CA 2919  GRA        0.000000
   2920  C         36.8407   45.3760    6.7000   CA 2920  GRA        0.000000
   2921  C         39.2968   42.5400    6.7000   CA 2921  GRA        0.000000
   2922  C         38.0687   43.2490    6.7000   CA 2922  GRA        0.000000
   2923  C         38.0687   44.6670    6.7000   CA 2923  GRA        0.000000
   2924  C         39.2968   45.3760    6.7000   CA 2924  GRA        0.000000
   2925  C         41.7528   42.5400    6.7000   CA 2925  GRA        0.000000
   2926  C         40.5248   43.2490    6.7000   CA 2926  GRA        0.000000
   2927  C         40.5248   44.6670    6.7000   CA 2927  GRA        0.000000
   2928  C         41.7528   45.3760    6.7000   CA 2928  GRA        0.000000
   2929  C         44.2089   42.5400    6.7000   CA 2929  GRA        0.000000
   2930  C         42.9808   43.2490    6.7000   CA 2930  GRA        0.000000
   2931  C         42.9808   44.6670    6.7000   CA 2931  GRA        0.000000
   2932  C         44.2089   45.3760    6.7000   CA 2932  GRA        0.000000
   2933  C         46.6649   42.5400    6.7000   CA 2933  GRA        0.000000
   2934  C         45.4369   43.2490    6.7000   CA 2934  GRA        0.000000
   2935  C         45.4369   44.6670    6.7000   CA 2935  GRA        0.000000
   2936  C         46.6649   45.3760    6.7000   CA 2936  GRA        0.000000
   2937  C         49.1210   42.5400    6.7000   CA 2937  GRA        0.000000
   2938  C         47.8929   43.2490    6.7000   CA 2938  GRA        0.000000
   2939  C         47.8929   44.6670    6.7000   CA 2939  GRA        0.000000
   2940  C         49.1210   45.3760    6.7000   CA 2940  GRA        0.000000
   2941  C          0.0000   46.7940    6.7000   CA 2941  GRA        0.000000
   2942  C         -1.2280   47.5030    6.7000   CA 2942  GRA        0.000000
   2943  C         -1.2280   48.9210    6.7000   CA 2943  GRA        0.000000
   2944  C          0.0000   49.6300    6.7000   CA 2944  GRA        0.000000
   2945  C          2.4560   46.7940    6.7000   CA 2945  GRA        0.000000
   2946  C          1.2280   47.5030    6.7000   CA 2946  GRA        0.000000
   2947  C          1.2280   48.9210    6.7000   CA 2947  GRA        0.000000
   2948  C          2.4560   49.6300    6.7000   CA 2948  GRA        0.000000
   2949  C          4.9121   46.7940    6.7000   CA 2949  GRA        0.000000
   2950  C          3.6841   47.5030    6.7000   CA 2950  GRA        0.000000
   2951  C          3.6841   48.9210    6.7000   CA 2951  GRA        0.000000
   2952  C          4.9121   49.6300    6.7000   CA 2952  GRA        0.000000
   2953  C          7.3681   46.7940    6.7000   CA 2953  GRA        0.000000
   2954  C          6.1401   47.5030    6.7000   CA 2954  GRA        0.000000
   2955  C          6.1401   48.9210    6.7000   CA 2955  GRA        0.000000
   2956  C          7.3681   49.6300    6.7000   CA 2956  GRA        0.000000
   2957  C          9.8242   46.7940    6.7000   CA 2957  GRA        0.000000
   2958  C          8.5962   47.5030    6.7000   CA 2958  GRA        0.000000
   2959  C          8.5962   48.9210    6.7000   CA 2959  GRA        0.000000
   2960  C          9.8242   49.6300    6.7000   CA 2960  GRA        0.000000
   2961  C         12.2802   46.7940    6.7000   CA 2961  GRA        0.000000
   2962  C         11.0522   47.5030    6.7000   CA 2962  GRA        0.000000
   2963  C         11.0522   48.9210    6.7000   CA 2963  GRA        0.000000
   2964  C         12.2802   49.6300    6.7000   CA 2964  GRA        0.000000
   2965  C         14.7363   46.7940    6.7000   CA 2965  GRA        0.000000
   2966  C         13.5083   47.5030    6.7000   CA 2966  GRA        0.000000
   2967  C         13.5083   48.9210    6.7000   CA 2967  GRA        0.000000
   2968  C         14.7363   49.6300    6.7000   CA 2968  GRA        0.000000
   2969  C         17.1923   46.7940    6.7000   CA 2969  GRA        0.000000
   2970  C         15.9643   47.5030    6.7000   CA 2970  GRA        0.000000
   2971  C         15.9643   48.9210    6.7000   CA 2971  GRA        0.000000
   2972  C         17.1923   49.6300    6.7000   CA 2972  GRA        0.000000
   2973  C         19.6484   46.7940    6.7000   CA 2973  GRA        0.000000
   2974  C         18.4204   47.5030    6.7000   CA 2974  GRA        0.000000
   2975  C         18.4204   48.9210    6.7000   CA 2975  GRA        0.000000
   2976  C         19.6484   49.6300    6.7000   CA 2976  GRA        0.000000
   2977  C         22.1044   46.7940    6.7000   CA 2977  GRA        0.000000
   2978  C         20.8764   47.5030    6.7000   CA 2978  GRA        0.000000
   2979  C         20.8764   48.9210    6.7000   CA 2979  GRA        0.000000
   2980  C         22.1044   49.6300    6.7000   CA 2980  GRA        0.000000
   2981  C         24.5605   46.7940    6.7000   CA 2981  GRA        0.000000
   2982  C         23.3325   47.5030    6.7000   CA 2982  GRA        0.000000
   2983  C         23.3325   48.9210    6.7000   CA 2983  GRA        0.000000
   2984  C         24.5605   49.6300    6.7000   CA 2984  GRA        0.000000
   2985  C         27.0165   46.7940    6.7000   CA 2985  GRA        0.000000
   2986  C         25.7885   47.5030    6.7000   CA 2986  GRA        0.000000
   2987  C         25.7885   48.9210    6.7000   CA 2987  GRA        0.000000
   2988  C         27.0165   49.6300    6.7000   CA 2988  GRA        0.000000
   2989  C         29.4726   46.7940    6.7000   CA 2989  GRA        0.000000
   2990  C         28.2446   47.5030    6.7000   CA 2990  GRA        0.000000
   2991  C         28.2446   48.9210    6.7000   CA 2991  GRA        0.000000
   2992  C         29.4726   49.6300    6.7000   CA 2992  GRA        0.000000
   2993  C         31.9286   46.7940    6.7000   CA 2993  GRA        0.000000
   2994  C         30.7006   47.5030    6.7000   CA 2994  GRA        0.000000
   2995  C         30.7006   48.9210    6.7000   CA 2995  GRA        0.000000
   2996  C         31.9286   49.6300    6.7000   CA 2996  GRA        0.000000
   2997  C         34.3847   46.7940    6.7000   CA 2997  GRA        0.000000
   2998  C         33.1566   47.5030    6.7000   CA 2998  GRA        0.000000
   2999  C         33.1566   48.9210    6.7000   CA 2999  GRA        0.000000
   3000  C         34.3847   49.6300    6.7000   CA 3000  GRA        0.000000
   3001  C         36.8407   46.7940    6.7000   CA 3001  GRA        0.000000
   3002  C         35.6127   47.5030    6.7000   CA 3002  GRA        0.000000
   3003  C         35.6127   48.9210    6.7000   CA 3003  GRA        0.000000
   3004  C         36.8407   49.6300    6.7000   CA 3004  GRA        0.000000
   3005  C         39.2968   46.7940    6.7000   CA 3005  GRA        0.000000
   3006  C         38.0687   47.5030    6.7000   CA 3006  GRA        0.000000
   3007  C         38.0687   48.9210    6.7000   CA 3007  GRA        0.000000
   3008  C         39.2968   49.6300    6.7000   CA 3008  GRA        0.000000
   3009  C         41.7528   46.7940    6.7000   CA 3009  GRA        0.000000
   3010  C         40.5248   47.5030    6.7000   CA 3010  GRA        0.000000
   3011  C         40.5248   48.9210    6.7000   CA 3011  GRA        0.000000
   3012  C         41.7528   49.6300    6.7000   CA 3012  GRA        0.000000
   3013  C         44.2089   46.7940    6.7000   CA 3013  GRA        0.000000
   3014  C         42.9808   47.5030    6.7000   CA 3014  GRA        0.000000
   3015  C         42.9808   48.9210    6.7000   CA 3015  GRA        0.000000
   3016  C         44.2089   49.6300    6.7000   CA 3016  GRA        0.000000
   3017  C         46.6649   46.7940    6.7000   CA 3017  GRA        0.000000
   3018  C         45.4369   47.5030    6.7000   CA 3018  GRA        0.000000
   3019  C         45.4369   48.9210    6.7000   CA 3019  GRA        0.000000
   3020  C         46.6649   49.6300    6.7000   CA 3020  GRA        0.000000
   3021  C         49.1210   46.7940    6.7000   CA 3021  GRA        0.000000
   3022  C         47.8929   47.5030    6.7000   CA 3022  GRA        0.000000
   3023  C         47.8929   48.9210    6.7000   CA 3023  GRA        0.000000
   3024  C         49.1210   49.6300    6.7000   CA 3024  GRA        0.000000
   3025  C          0.0000    1.4180   10.0500   CA 3025  GRA        0.000000
   3026  C         -1.2280    2.1270   10.0500   CA 3026  GRA        0.000000
   3027  C         -1.2280    3.5450   10.0500   CA 3027  GRA        0.000000
   3028  C          0.0000    4.2540   10.0500   CA 3028  GRA        0.000000
   3029  C          2.4560    1.4180   10.0500   CA 3029  GRA        0.000000
   3030  C          1.2280    2.1270   10.0500   CA 3030  GRA        0.000000
   3031  C          1.2280    3.5450   10.0500   CA 3031  GRA        0.000000
   3032  C          2.4560    4.2540   10.0500   CA 3032  GRA        0.000000
   3033  C          4.9121    1.4180   10.0500   CA 3033  GRA        0.000000
   3034  C          3.6841    2.1270   10.0500   CA 3034  GRA        0.000000
   3035  C          3.6841    3.5450   10.0500   CA 3035  GRA        0.000000
   3036  C          4.9121    4.2540   10.0500   CA 3036  GRA        0.000000
   3037  C          7.3681    1.4180   10.0500   CA 3037  GRA        0.000000
   3038  C          6.1401    2.1270   10.0500   CA 3038  GRA        0.000000
   3039  C          6.1401    3.5450   10.0500   CA 3039  GRA        0.000000
   3040  C          7.3681    4.2540   10.0500   CA 3040  GRA        0.000000
   3041  C          9.8242    1.4180   10.0500   CA 3041  GRA        0.000000
   3042  C          8.5962    2.1270   10.0500   CA 3042  GRA        0.000000
   3043  C          8.5962    3.5450   10.0500   CA 3043  GRA        0.000000
   3044  C          9.8242    4.2540   10.0500   CA 3044  GRA        0.000000
   3045  C         12.2802    1.4180   10.0500   CA 3045  GRA        0.000000
   3046  C         11.0522    2.1270   10.0500   CA 3046  GRA        0.000000
   3047  C         11.0522    3.5450   10.0500   CA 3047  GRA        0.000000
   3048  C         12.2802    4.2540   10.0500   CA 3048  GRA        0.000000
   3049  C         14.7363    1.4180   10.0500   CA 3049  GRA        0.000000
   3050  C         13.5083    2.1270   10.0500   CA 3050  GRA        0.000000
   3051  C         13.5083    3.5450   10.0500   CA 3051  GRA        0.000000
   3052  C         14.7363    4.2540   10.0500   CA 3052  GRA        0.000000
   3053  C         17.1923    1.4180   10.0500   CA 3053  GRA        0.000000
   3054  C         15.9643    2.1270   10.0500   CA 3054  GRA        0.000000
   3055  C         15.9643    3.5450   10.0500   CA 3055  GRA        0.000000
   3056  C         17.1923    4.2540   10.0500   CA 3056  GRA        0.000000
   3057  C         19.6484    1.4180   10.0500   CA 3057  GRA        0.000000
   3058  C         18.4204    2.1270   10.0500   CA 3058  GRA        0.000000
   3059  C         18.4204    3.5450   10.0500   CA 3059  GRA        0.000000
   3060  C         19.6484    4.2540   10.0500   CA 3060  GRA        0.000000
   3061  C         22.1044    1.4180   10.0500   CA 3061  GRA        0.000000
   3062  C         20.8764    2.1270   10.0500   CA 3062  GRA        0.000000
   3063  C         20.8764    3.5450   10.0500   CA 3063  GRA        0.000000
   3064  C         22.1044    4.2540   10.0500   CA 3064  GRA        0.000000
   3065  C         24.5605    1.4180   10.0500   CA 3065  GRA        0.000000
   3066  C         23.3325    2.1270   10.0500   CA 3066  GRA        0.000000
   3067  C         23.3325    3.5450   10.0500   CA 3067  GRA        0.000000
   3068  C         24.5605    4.2540   10.0500   CA 3068  GRA        0.000000
   3069  C         27.0165    1.4180   10.0500   CA 3069  GRA        0.000000
   3070  C         25.7885    2.1270   10.0500   CA 3070  GRA        0.000000
   3071  C         25.7885    3.5450   10.0500   CA 3071  GRA        0.000000
   3072  C         27.0165    4.2540   10.0500   CA 3072  GRA        0.000000
   3073  C         29.4726    1.4180   10.0500   CA 3073  GRA        0.000000
   3074  C         28.2446    2.1270   10.0500   CA 3074  GRA        0.000000
   3075  C         28.2446    3.5450   10.0500   CA 3075  GRA        0.000000
   3076  C         29.4726    4.2540   10.0500   CA 3076  GRA        0.000000
   3077  C         31.9286    1.4180   10.0500   CA 3077  GRA        0.000000
   3078  C         30.7006    2.1270   10.0500   CA 3078  GRA        0.000000
   3079  C         30.7006    3.5450   10.0500   CA 3079  GRA        0.000000
   3080  C         31.9286    4.2540   10.0500   CA 3080  GRA        0.000000
   3081  C         34.3847    1.4180   10.0500   CA 3081  GRA        0.000000
   3082  C         33.1566    2.1270   10.0500   CA 3082  GRA        0.000000
   3083  C         33.1566    3.5450   10.0500   CA 3083  GRA        0.000000
   3084  C         34.3847    4.2540   10.0500   CA 3084  GRA        0.000000
   3085  C         36.8407    1.4180   10.0500   CA 3085  GRA        0.000000
   3086  C         35.6127    2.1270   10.0500   CA 3086  GRA        0.000000
   3087  C         35.6127    3.5450   10.0500   CA 3087  GRA        0.000000
   3088  C         36.8407    4.2540   10.0500   CA 3088  GRA        0.000000
   3089  C         39.2968    1.4180   10.0500   CA 3089  GRA        0.000000
   3090  C         38.0687    2.1270   10.0500   CA 3090  GRA        0.000000
   3091  C         38.0687    3.5450   10.0500   CA 3091  GRA        0.000000
   3092  C         39.2968    4.2540   10.0500   CA 3092  GRA        0.000000
   3093  C         41.7528    1.4180   10.0500   CA 3093  GRA        0.000000
   3094  C         40.5248    2.1270   10.0500   CA 3094  GRA        0.000000
   3095  C         40.5248    3.5450   10.0500   CA 3095  GRA        0.000000
   3096  C         41.7528    4.2540   10.0500   CA 3096  GRA        0.000000
   3097  C         44.2089    1.4180   10.0500   CA 3097  GRA        0.000000
   3098  C         42.9808    2.1270   10.0500   CA 3098  GRA        0.000000
   3099  C         42.9808    3.5450   10.0500   CA 3099  GRA        0.000000
   3100  C         44.2089    4.2540   10.0500   CA 3100  GRA        0.000000
   3101  C         46.6649    1.4180   10.0500   CA 3101  GRA        0.000000
   3102  C         45.4369    2.1270   10.0500   CA 3102  GRA        0.000000
   3103  C         45.4369    3.5450   10.0500   CA 3103  GRA        0.000000
   3104  C         46.6649    4.2540   10.0500   CA 3104  GRA        0.000000
   3105  C         49.1210    1.4180   10.0500   CA 3105  GRA        0.000000
   3106  C         47.8929    2.1270   10.0500   CA 3106  GRA        0.000000
   3107  C         47.8929    3.5450   10.0500   CA 3107  GRA        0.000000
   3108  C         49.1210    4.2540   10.0500   CA 3108  GRA        0.000000
   3109  C          0.0000    5.6720   10.0500   CA 3109  GRA        0.000000
   3110  C         -1.2280    6.3810   10.0500   CA 3110  GRA        0.000000
   3111  C         -1.2280    7.7990   10.0500   CA 3111  GRA        0.000000
   3112  C          0.0000    8.5080   10.0500   CA 3112  GRA        0.000000
   3113  C          2.4560    5.6720   10.0500   CA 3113  GRA        0.000000
   3114  C          1.2280    6.3810   10.0500   CA 3114  GRA        0.000000
   3115  C          1.2280    7.7990   10.0500   CA 3115  GRA        0.000000
   3116  C          2.4560    8.5080   10.0500   CA 3116  GRA        0.000000
   3117  C          4.9121    5.6720   10.0500   CA 3117  GRA        0.000000
   3118  C          3.6841    6.3810   10.0500   CA 3118  GRA        0.000000
   3119  C          3.6841    7.7990   10.0500   CA 3119  GRA        0.000000
   3120  C          4.9121    8.5080   10.0500   CA 3120  GRA        0.000000
   3121  C          7.3681    5.6720   10.0500   CA 3121  GRA        0.000000
   3122  C          6.1401    6.3810   10.0500   CA 3122  GRA        0.000000
   3123  C          6.1401    7.7990   10.0500   CA 3123  GRA        0.000000
   3124  C          7.3681    8.5080   10.0500   CA 3124  GRA        0.000000
   3125  C          9.8242    5.6720   10.0500   CA 3125  GRA        0.000000
   3126  C          8.5962    6.3810   10.0500   CA 3126  GRA        0.000000
   3127  C          8.5962    7.7990   10.0500   CA 3127  GRA        0.000000
   3128  C          9.8242    8.5080   10.0500   CA 3128  GRA        0.000000
   3129  C         12.2802    5.6720   10.0500   CA 3129  GRA        0.000000
   3130  C         11.0522    6.3810   10.0500   CA 3130  GRA        0.000000
   3131  C         11.0522    7.7990   10.0500   CA 3131  GRA        0.000000
   3132  C         12.2802    8.5080   10.0500   CA 3132  GRA        0.000000
   3133  C         14.7363    5.6720   10.0500   CA 3133  GRA        0.000000
   3134  C         13.5083    6.3810   10.0500   CA 3134  GRA        0.000000
   3135  C         13.5083    7.7990   10.0500   CA 3135  GRA        0.000000
   3136  C         14.7363    8.5080   10.0500   CA 3136  GRA        0.000000
   3137  C         17.1923    5.6720   10.0500   CA 3137  GRA        0.000000
   3138  C         15.9643    6.3810   10.0500   CA 3138  GRA        0.000000
   3139  C         15.9643    7.7990   10.0500   CA 3139  GRA        0.000000
   3140  C         17.1923    8.5080   10.0500   CA 3140  GRA        0.000000
   3141  C         19.6484    5.6720   10.0500   CA 3141  GRA        0.000000
   3142  C         18.4204    6.3810   10.0500   CA 3142  GRA        0.000000
   3143  C         18.4204    7.7990   10.0500   CA 3143  GRA        0.000000
   3144  C         19.6484    8.5080   10.0500   CA 3144  GRA        0.000000
   3145  C         22.1044    5.6720   10.0500   CA 3145  GRA        0.000000
   3146  C         20.8764    6.3810   10.0500   CA 3146  GRA        0.000000
   3147  C         20.8764    7.7990   10.0500   CA 3147  GRA        0.000000
   3148  C         22.1044    8.5080   10.0500   CA 3148  GRA        0.000000
   3149  C         24.5605    5.6720   10.0500   CA 3149  GRA        0.000000
   3150  C         23.3325    6.3810   10.0500   CA 3150  GRA        0.000000
   3151  C         23.3325    7.7990   10.0500   CA 3151  GRA        0.000000
   3152  C         24.5605    8.5080   10.0500   CA 3152  GRA        0.000000
   3153  C         27.0165    5.6720   10.0500   CA 3153  GRA        0.000000
   3154  C         25.7885    6.3810   10.0500   CA 3154  GRA        0.000000
   3155  C         25.7885    7.7990   10.0500   CA 3155  GRA        0.000000
   3156  C         27.0165    8.5080   10.0500   CA 3156  GRA        0.000000
   3157  C         29.4726    5.6720   10.0500   CA 3157  GRA        0.000000
   3158  C         28.2446    6.3810   10.0500   CA 3158  GRA        0.000000
   3159  C         28.2446    7.7990   10.0500   CA 3159  GRA        0.000000
   3160  C         29.4726    8.5080   10.0500   CA 3160  GRA        0.000000
   3161  C         31.9286    5.6720   10.0500   CA 3161  GRA        0.000000
   3162  C         30.7006    6.3810   10.0500   CA 3162  GRA        0.000000
   3163  C         30.7006    7.7990   10.0500   CA 3163  GRA        0.000000
   3164  C         31.9286    8.5080   10.0500   CA 3164  GRA        0.000000
   3165  C         34.3847    5.6720   10.0500   CA 3165  GRA        0.000000
   3166  C         33.1566    6.3810   10.0500   CA 3166  GRA        0.000000
   3167  C         33.1566    7.7990   10.0500   CA 3167  GRA        0.000000
   3168  C         34.3847    8.5080   10.0500   CA 3168  GRA        0.000000
   3169  C         36.8407    5.6720   10.0500   CA 3169  GRA        0.000000
   3170  C         35.6127    6.3810   10.0500   CA 3170  GRA        0.000000
   3171  C         35.6127    7.7990   10.0500   CA 3171  GRA        0.000000
   3172  C         36.8407    8.5080   10.0500   CA 3172  GRA        0.000000
   3173  C         39.2968    5.6720   10.0500   CA 3173  GRA        0.000000
   3174  C         38.0687    6.3810   10.0500   CA 3174  GRA        0.000000
   3175  C         38.0687    7.7990   10.0500   CA 3175  GRA        0.000000
   3176  C         39.2968    8.5080   10.0500   CA 3176  GRA        0.000000
   3177  C         41.7528    5.6720   10.0500   CA 3177  GRA        0.000000
   3178  C         40.5248    6.3810   10.0500   CA 3178  GRA        0.000000
   3179  C         40.5248    7.7990   10.0500   CA 3179  GRA        0.000000
   3180  C         41.7528    8.5080   10.0500   CA 3180  GRA        0.000000
   3181  C         44.2089    5.6720   10.0500   CA 3181  GRA        0.000000
   3182  C         42.9808    6.3810   10.0500   CA 3182  GRA        0.000000
   3183  C         42.9808    7.7990   10.0500   CA 3183  GRA        0.000000
   3184  C         44.2089    8.5080   10.0500   CA 3184  GRA        0.000000
   3185  C         46.6649    5.6720   10.0500   CA 3185  GRA        0.000000
   3186  C         45.4369    6.3810   10.0500   CA 3186  GRA        0.000000
   3187  C         45.4369    7.7990   10.0500   CA 3187  GRA        0.000000
   3188  C         46.6649    8.5080   10.0500   CA 3188  GRA        0.000000
   3189  C         49.1210    5.6720   10.0500   CA 3189  GRA        0.000000
   3190  C         47.8929    6.3810   10.0500   CA 3190  GRA        0.000000
   3191  C         47.8929    7.7990   10.0500   CA 3191  GRA        0.000000
   3192  C         49.1210    8.5080   10.0500   CA 3192  GRA        0.000000
   3193  C          0.0000    9.9260   10.0500   CA 3193  GRA        0.000000
   3194  C         -1.2280   10.6350   10.0500   CA 3194  GRA        0.000000
   3195  C         -1.2280   12.0530   10.0500   CA 3195  GRA        0.000000
   3196  C          0.0000   12.7620   10.0500   CA 3196  GRA        0.000000
   3197  C          2.4560    9.9260   10.0500   CA 3197  GRA        0.000000
   3198  C          1.2280   10.6350   10.0500   CA 3198  GRA        0.000000
   3199  C          1.2280   12.0530   10.0500   CA 3199  GRA        0.000000
   3200  C          2.4560   12.7620   10.0500   CA 3200  GRA        0.000000
   3201  C          4.9121    9.9260   10.0500   CA 3201  GRA        0.000000
   3202  C          3.6841   10.6350   10.0500   CA 3202  GRA        0.000000
   3203  C          3.6841   12.0530   10.0500   CA 3203  GRA        0.000000
   3204  C          4.9121   12.7620   10.0500   CA 3204  GRA        0.000000
   3205  C          7.3681    9.9260   10.0500   CA 3205  GRA        0.000000
   3206  C          6.1401   10.6350   10.0500   CA 3206  GRA        0.000000
   3207  C          6.1401   12.0530   10.0500   CA 3207  GRA        0.000000
   3208  C          7.3681   12.7620   10.0500   CA 3208  GRA        0.000000
   3209  C          9.8242    9.9260   10.0500   CA 3209  GRA        0.000000
   3210  C          8.5962   10.6350   10.0500   CA 3210  GRA        0.000000
   3211  C          8.5962   12.0530   10.0500   CA 3211  GRA        0.000000
   3212  C          9.8242   12.7620   10.0500   CA 3212  GRA        0.000000
   3213  C         12.2802    9.9260   10.0500   CA 3213  GRA        0.000000
   3214  C         11.0522   10.6350   10.0500   CA 3214  GRA        0.000000
   3215  C         11.0522   12.0530   10.0500   CA 3215  GRA        0.000000
   3216  C         12.2802   12.7620   10.0500   CA 3216  GRA        0.000000
   3217  C         14.7363    9.9260   10.0500   CA 3217  GRA        0.000000
   3218  C         13.5083   10.6350   10.0500   CA 3218  GRA        0.000000
   3219  C         13.5083   12.0530   10.0500   CA 3219  GRA        0.000000
   3220  C         14.7363   12.7620   10.0500   CA 3220  GRA        0.000000
   3221  C         17.1923    9.9260   10.0500   CA 3221  GRA        0.000000
   3222  C         15.9643   10.6350   10.0500   CA 3222  GRA        0.000000
   3223  C         15.9643   12.0530   10.0500   CA 3223  GRA        0.000000
   3224  C         17.1923   12.7620   10.0500   CA 3224  GRA        0.000000
   3225  C         19.6484    9.9260   10.0500   CA 3225  GRA        0.000000
   3226  C         18.4204   10.6350   10.0500   CA 3226  GRA        0.000000
   3227  C         18.4204   12.0530   10.0500   CA 3227  GRA        0.000000
   3228  C         19.6484   12.7620   10.0500   CA 3228  GRA        0.000000
   3229  C         22.1044    9.9260   10.0500   CA 3229  GRA        0.000000
   3230  C         20.8764   10.6350   10.0500   CA 3230  GRA        0.000000
   3231  C         20.8764   12.0530   10.0500   CA 3231  GRA        0.000000
   3232  C         22.1044   12.7620   10.0500   CA 3232  GRA        0.000000
   3233  C         24.5605    9.9260   10.0500   CA 3233  GRA        0.000000
   3234  C         23.3325   10.6350   10.0500   CA 3234  GRA        0.000000
   3235  C         23.3325   12.0530   10.0500   CA 3235  GRA        0.000000
   3236  C         24.5605   12.7620   10.0500   CA 3236  GRA        0.000000
   3237  C         27.0165    9.9260   10.0500   CA 3237  GRA        0.000000
   3238  C         25.7885   10.6350   10.0500   CA 3238  GRA        0.000000
   3239  C         25.7885   12.0530   10.0500   CA 3239  GRA        0.000000
   3240  C         27.0165   12.7620   10.0500   CA 3240  GRA        0.000000
   3241  C         29.4726    9.9260   10.0500   CA 3241  GRA        0.000000
   3242  C         28.2446   10.6350   10.0500   CA 3242  GRA        0.000000
   3243  C         28.2446   12.0530   10.0500   CA 3243  GRA        0.000000
   3244  C         29.4726   12.7620   10.0500   CA 3244  GRA        0.000000
   3245  C         31.9286    9.9260   10.0500   CA 3245  GRA        0.000000
   3246  C         30.7006   10.6350   10.0500   CA 3246  GRA        0.000000
   3247  C         30.7006   12.0530   10.0500   CA 3247  GRA        0.000000
   3248  C         31.9286   12.7620   10.0500   CA 3248  GRA        0.000000
   3249  C         34.3847    9.9260   10.0500   CA 3249  GRA        0.000000
   3250  C         33.1566   10.6350   10.0500   CA 3250  GRA        0.000000
   3251  C         33.1566   12.0530   10.0500   CA 3251  GRA        0.000000
   3252  C         34.3847   12.7620   10.0500   CA 3252  GRA        0.000000
   3253  C         36.8407    9.9260   10.0500   CA 3253  GRA        0.000000
   3254  C         35.6127   10.6350   10.0500   CA 3254  GRA        0.000000
   3255  C         35.6127   12.0530   10.0500   CA 3255  GRA        0.000000
   3256  C         36.8407   12.7620   10.0500   CA 3256  GRA        0.000000
   3257  C         39.2968    9.9260   10.0500   CA 3257  GRA        0.000000
   3258  C         38.0687   10.6350   10.0500   CA 3258  GRA        0.000000
   3259  C         38.0687   12.0530   10.0500   CA 3259  GRA        0.000000
   3260  C         39.2968   12.7620   10.0500   CA 3260  GRA        0.000000
   3261  C         41.7528    9.9260   10.0500   CA 3261  GRA        0.000000
   3262  C         40.5248   10.6350   10.0500   CA 3262  GRA        0.000000
   3263  C         40.5248   12.0530   10.0500   CA 3263  GRA        0.000000
   3264  C         41.7528   12.7620   10.0500   CA 3264  GRA        0.000000
   3265  C         44.2089    9.9260   10.0500   CA 3265  GRA        0.000000
   3266  C         42.9808   10.6350   10.0500   CA 3266  GRA        0.000000
   3267  C         42.9808   12.0530   10.0500   CA 3267  GRA        0.000000
   3268  C         44.2089   12.7620   10.0500   CA 3268  GRA        0.000000
   3269  C         46.6649    9.9260   10.0500   CA 3269  GRA        0.000000
   3270  C         45.4369   10.6350   10.0500   CA 3270  GRA        0.000000
   3271  C         45.4369   12.0530   10.0500   CA 3271  GRA        0.000000
   3272  C         46.6649   12.7620   10.0500   CA 3272  GRA        0.000000
   3273  C         49.1210    9.9260   10.0500   CA 3273  GRA        0.000000
   3274  C         47.8929   10.6350   10.0500   CA 3274  GRA        0.000000
   3275  C         47.8929   12.0530   10.0500   CA 3275  GRA        0.000000
   3276  C         49.1210   12.7620   10.0500   CA 3276  GRA        0.000000
   3277  C          0.0000   14.1800   10.0500   CA 3277  GRA        0.000000
   3278  C         -1.2280   14.8890   10.0500   CA 3278  GRA        0.000000
   3279  C         -1.2280   16.3070   10.0500   CA 3279  GRA        0.000000
   3280  C          0.0000   17.0160   10.0500   CA 3280  GRA        0.000000
   3281  C          2.4560   14.1800   10.0500   CA 3281  GRA        0.000000
   3282  C          1.2280   14.8890   10.0500   CA 3282  GRA        0.000000
   3283  C          1.2280   16.3070   10.0500   CA 3283  GRA        0.000000
   3284  C          2.4560   17.0160   10.0500   CA 3284  GRA        0.000000
   3285  C          4.9121   14.1800   10.0500   CA 3285  GRA        0.000000
   3286  C          3.6841   14.8890   10.0500   CA 3286  GRA        0.000000
   3287  C          3.6841   16.3070   10.0500   CA 3287  GRA        0.000000
   3288  C          4.9121   17.0160   10.0500   CA 3288  GRA        0.000000
   3289  C          7.3681   14.1800   10.0500   CA 3289  GRA        0.000000
   3290  C          6.1401   14.8890   10.0500   CA 3290  GRA        0.000000
   3291  C          6.1401   16.3070   10.0500   CA 3291  GRA        0.000000
   3292  C          7.3681   17.0160   10.0500   CA 3292  GRA        0.000000
   3293  C          9.8242   14.1800   10.0500   CA 3293  GRA        0.000000
   3294  C          8.5962   14.8890   10.0500   CA 3294  GRA        0.000000
   3295  C          8.5962   16.3070   10.0500   CA 3295  GRA        0.000000
   3296  C          9.8242   17.0160   10.0500   CA 3296  GRA        0.000000
   3297  C         12.2802   14.1800   10.0500   CA 3297  GRA        0.000000
   3298  C         11.0522   14.8890   10.0500   CA 3298  GRA        0.000000
   3299  C         11.0522   16.3070   10.0500   CA 3299  GRA        0.000000
   3300  C         12.2802   17.0160   10.0500   CA 3300  GRA        0.000000
   3301  C         14.7363   14.1800   10.0500   CA 3301  GRA        0.000000
   3302  C         13.5083   14.8890   10.0500   CA 3302  GRA        0.000000
   3303  C         13.5083   16.3070   10.0500   CA 3303  GRA        0.000000
   3304  C         14.7363   17.0160   10.0500   CA 3304  GRA        0.000000
   3305  C         17.1923   14.1800   10.0500   CA 3305  GRA        0.000000
   3306  C         15.9643   14.8890   10.0500   CA 3306  GRA        0.000000
   3307  C         15.9643   16.3070   10.0500   CA 3307  GRA        0.000000
   3308  C         17.1923   17.0160   10.0500   CA 3308  GRA        0.000000
   3309  C         19.6484   14.1800   10.0500   CA 3309  GRA        0.000000
   3310  C         18.4204   14.8890   10.0500   CA 3310  GRA        0.000000
   3311  C         18.4204   16.3070   10.0500   CA 3311  GRA        0.000000
   3312  C         19.6484   17.0160   10.0500   CA 3312  GRA        0.000000
   3313  C         22.1044   14.1800   10.0500   CA 3313  GRA        0.000000
   3314  C         20.8764   14.8890   10.0500   CA 3314  GRA        0.000000
   3315  C         20.8764   16.3070   10.0500   CA 3315  GRA        0.000000
   3316  C         22.1044   17.0160   10.0500   CA 3316  GRA        0.000000
   3317  C         24.5605   14.1800   10.0500   CA 3317  GRA        0.000000
   3318  C         23.3325   14.8890   10.0500   CA 3318  GRA        0.000000
   3319  C         23.3325   16.3070   10.0500   CA 3319  GRA        0.000000
   3320  C         24.5605   17.0160   10.0500   CA 3320  GRA        0.000000
   3321  C         27.0165   14.1800   10.0500   CA 3321  GRA        0.000000
   3322  C         25.7885   14.8890   10.0500   CA 3322  GRA        0.000000
   3323  C         25.7885   16.3070   10.0500   CA 3323  GRA        0.000000
   3324  C         27.0165   17.0160   10.0500   CA 3324  GRA        0.000000
   3325  C         29.4726   14.1800   10.0500   CA 3325  GRA        0.000000
   3326  C         28.2446   14.8890   10.0500   CA 3326  GRA        0.000000
   3327  C         28.2446   16.3070   10.0500   CA 3327  GRA        0.000000
   3328  C         29.4726   17.0160   10.0500   CA 3328  GRA        0.000000
   3329  C         31.9286   14.1800   10.0500   CA 3329  GRA        0.000000
   3330  C         30.7006   14.8890   10.0500   CA 3330  GRA        0.000000
   3331  C         30.7006   16.3070   10.0500   CA 3331  GRA        0.000000
   3332  C         31.9286   17.0160   10.0500   CA 3332  GRA        0.000000
   3333  C         34.3847   14.1800   10.0500   CA 3333  GRA        0.000000
   3334  C         33.1566   14.8890   10.0500   CA 3334  GRA        0.000000
   3335  C         33.1566   16.3070   10.0500   CA 3335  GRA        0.000000
   3336  C         34.3847   17.0160   10.0500   CA 3336  GRA        0.000000
   3337  C         36.8407   14.1800   10.0500   CA 3337  GRA        0.000000
   3338  C         35.6127   14.8890   10.0500   CA 3338  GRA        0.000000
   3339  C         35.6127   16.3070   10.0500   CA 3339  GRA        0.000000
   3340  C         36.8407   17.0160   10.0500   CA 3340  GRA        0.000000
   3341  C         39.2968   14.1800   10.0500   CA 3341  GRA        0.000000
   3342  C         38.0687   14.8890   10.0500   CA 3342  GRA        0.000000
   3343  C         38.0687   16.3070   10.0500   CA 3343  GRA        0.000000
   3344  C         39.2968   17.0160   10.0500   CA 3344  GRA        0.000000
   3345  C         41.7528   14.1800   10.0500   CA 3345  GRA        0.000000
   3346  C         40.5248   14.8890   10.0500   CA 3346  GRA        0.000000
   3347  C         40.5248   16.3070   10.0500   CA 3347  GRA        0.000000
   3348  C         41.7528   17.0160   10.0500   CA 3348  GRA        0.000000
   3349  C         44.2089   14.1800   10.0500   CA 3349  GRA        0.000000
   3350  C         42.9808   14.8890   10.0500   CA 3350  GRA        0.000000
   3351  C         42.9808   16.3070   10.0500   CA 3351  GRA        0.000000
   3352  C         44.2089   17.0160   10.0500   CA 3352  GRA        0.000000
   3353  C         46.6649   14.1800   10.0500   CA 3353  GRA        0.000000
   3354  C         45.4369   14.8890   10.0500   CA 3354  GRA        0.000000
   3355  C         45.4369   16.3070   10.0500   CA 3355  GRA        0.000000
   3356  C         46.6649   17.0160   10.0500   CA 3356  GRA        0.000000
   3357  C         49.1210   14.1800   10.0500   CA 3357  GRA        0.000000
   3358  C         47.8929   14.8890   10.0500   CA 3358  GRA        0.000000
   3359  C         47.8929   16.3070   10.0500   CA 3359  GRA        0.000000
   3360  C         49.1210   17.0160   10.0500   CA 3360  GRA        0.000000
   3361  C          0.0000   18.4340   10.0500   CA 3361  GRA        0.000000
   3362  C         -1.2280   19.1430   10.0500   CA 3362  GRA        0.000000
   3363  C         -1.2280   20.5610   10.0500   CA 3363  GRA        0.000000
   3364  C          0.0000   21.2700   10.0500   CA 3364  GRA        0.000000
   3365  C          2.4560   18.4340   10.0500   CA 3365  GRA        0.000000
   3366  C          1.2280   19.1430   10.0500   CA 3366  GRA        0.000000
   3367  C          1.2280   20.5610   10.0500   CA 3367  GRA        0.000000
   3368  C          2.4560   21.2700   10.0500   CA 3368  GRA        0.000000
   3369  C          4.9121   18.4340   10.0500   CA 3369  GRA        0.000000
   3370  C          3.6841   19.1430   10.0500   CA 3370  GRA        0.000000
   3371  C          3.6841   20.5610   10.0500   CA 3371  GRA        0.000000
   3372  C          4.9121   21.2700   10.0500   CA 3372  GRA        0.000000
   3373  C          7.3681   18.4340   10.0500   CA 3373  GRA        0.000000
   3374  C          6.1401   19.1430   10.0500   CA 3374  GRA        0.000000
   3375  C          6.1401   20.5610   10.0500   CA 3375  GRA        0.000000
   3376  C          7.3681   21.2700   10.0500   CA 3376  GRA        0.000000
   3377  C          9.8242   18.4340   10.0500   CA 3377  GRA        0.000000
   3378  C          8.5962   19.1430   10.0500   CA 3378  GRA        0.000000
   3379  C          8.5962   20.5610   10.0500   CA 3379  GRA        0.000000
   3380  C          9.8242   21.2700   10.0500   CA 3380  GRA        0.000000
   3381  C         12.2802   18.4340   10.0500   CA 3381  GRA        0.000000
   3382  C         11.0522   19.1430   10.0500   CA 3382  GRA        0.000000
   3383  C         11.0522   20.5610   10.0500   CA 3383  GRA        0.000000
   3384  C         12.2802   21.2700   10.0500   CA 3384  GRA        0.000000
   3385  C         14.7363   18.4340   10.0500   CA 3385  GRA        0.000000
   3386  C         13.5083   19.1430   10.0500   CA 3386  GRA        0.000000
   3387  C         13.5083   20.5610   10.0500   CA 3387  GRA        0.000000
   3388  C         14.7363   21.2700   10.0500   CA 3388  GRA        0.000000
   3389  C         17.1923   18.4340   10.0500   CA 3389  GRA        0.000000
   3390  C         15.9643   19.1430   10.0500   CA 3390  GRA        0.000000
   3391  C         15.9643   20.5610   10.0500   CA 3391  GRA        0.000000
   3392  C         17.1923   21.2700   10.0500   CA 3392  GRA        0.000000
   3393  C         19.6484   18.4340   10.0500   CA 3393  GRA        0.000000
   3394  C         18.4204   19.1430   10.0500   CA 3394  GRA        0.000000
   3395  C         18.4204   20.5610   10.0500   CA 3395  GRA        0.000000
   3396  C         19.6484   21.2700   10.0500   CA 3396  GRA        0.000000
   3397  C         22.1044   18.4340   10.0500   CA 3397  GRA        0.000000
   3398  C         20.8764   19.1430   10.0500   CA 3398  GRA        0.000000
   3399  C         20.8764   20.5610   10.0500   CA 3399  GRA        0.000000
   3400  C         22.1044   21.2700   10.0500   CA 3400  GRA        0.000000
   3401  C         24.5605   18.4340   10.0500   CA 3401  GRA        0.000000
   3402  C         23.3325   19.1430   10.0500   CA 3402  GRA        0.000000
   3403  C         23.3325   20.5610   10.0500   CA 3403  GRA        0.000000
   3404  C         24.5605   21.2700   10.0500   CA 3404  GRA        0.000000
   3405  C         27.0165   18.4340   10.0500   CA 3405  GRA        0.000000
   3406  C         25.7885   19.1430   10.0500   CA 3406  GRA        0.000000
   3407  C         25.7885   20.5610   10.0500   CA 3407  GRA        0.000000
   3408  C         27.0165   21.2700   10.0500   CA 3408  GRA        0.000000
   3409  C         29.4726   18.4340   10.0500   CA 3409  GRA        0.000000
   3410  C         28.2446   19.1430   10.0500   CA 3410  GRA        0.000000
   3411  C         28.2446   20.5610   10.0500   CA 3411  GRA        0.000000
   3412  C         29.4726   21.2700   10.0500   CA 3412  GRA        0.000000
   3413  C         31.9286   18.4340   10.0500   CA 3413  GRA        0.000000
   3414  C         30.7006   19.1430   10.0500   CA 3414  GRA        0.000000
   3415  C         30.7006   20.5610   10.0500   CA 3415  GRA        0.000000
   3416  C         31.9286   21.2700   10.0500   CA 3416  GRA        0.000000
   3417  C         34.3847   18.4340   10.0500   CA 3417  GRA        0.000000
   3418  C         33.1566   19.1430   10.0500   CA 3418  GRA        0.000000
   3419  C         33.1566   20.5610   10.0500   CA 3419  GRA        0.000000
   3420  C         34.3847   21.2700   10.0500   CA 3420  GRA        0.000000
   3421  C         36.8407   18.4340   10.0500   CA 3421  GRA        0.000000
   3422  C         35.6127   19.1430   10.0500   CA 3422  GRA        0.000000
   3423  C         35.6127   20.5610   10.0500   CA 3423  GRA        0.000000
   3424  C         36.8407   21.2700   10.0500   CA 3424  GRA        0.000000
   3425  C         39.2968   18.4340   10.0500   CA 3425  GRA        0.000000
   3426  C         38.0687   19.1430   10.0500   CA 3426  GRA        0.000000
   3427  C         38.0687   20.5610   10.0500   CA 3427  GRA        0.000000
   3428  C         39.2968   21.2700   10.0500   CA 3428  GRA        0.000000
   3429  C         41.7528   18.4340   10.0500   CA 3429  GRA        0.000000
   3430  C         40.5248   19.1430   10.0500   CA 3430  GRA        0.000000
   3431  C         40.5248   20.5610   10.0500   CA 3431  GRA        0.000000
   3432  C         41.7528   21.2700   10.0500   CA 3432  GRA        0.000000
   3433  C         44.2089   18.4340   10.0500   CA 3433  GRA        0.000000
   3434  C         42.9808   19.1430   10.0500   CA 3434  GRA        0.000000
   3435  C         42.9808   20.5610   10.0500   CA 3435  GRA        0.000000
   3436  C         44.2089   21.2700   10.0500   CA 3436  GRA        0.000000
   3437  C         46.6649   18.4340   10.0500   CA 3437  GRA        0.000000
   3438  C         45.4369   19.1430   10.0500   CA 3438  GRA        0.000000
   3439  C         45.4369   20.5610   10.0500   CA 3439  GRA        0.000000
   3440  C         46.6649   21.2700   10.0500   CA 3440  GRA        0.000000
   3441  C         49.1210   18.4340   10.0500   CA 3441  GRA        0.000000
   3442  C         47.8929   19.1430   10.0500   CA 3442  GRA        0.000000
   3443  C         47.8929   20.5610   10.0500   CA 3443  GRA        0.000000
   3444  C         49.1210   21.2700   10.0500   CA 3444  GRA        0.000000
   3445  C          0.0000   22.6880   10.0500   CA 3445  GRA        0.000000
   3446  C         -1.2280   23.3970   10.0500   CA 3446  GRA        0.000000
   3447  C         -1.2280   24.8150   10.0500   CA 3447  GRA        0.000000
   3448  C          0.0000   25.5240   10.0500   CA 3448  GRA        0.000000
   3449  C          2.4560   22.6880   10.0500   CA 3449  GRA        0.000000
   3450  C          1.2280   23.3970   10.0500   CA 3450  GRA        0.000000
   3451  C          1.2280   24.8150   10.0500   CA 3451  GRA        0.000000
   3452  C          2.4560   25.5240   10.0500   CA 3452  GRA        0.000000
   3453  C          4.9121   22.6880   10.0500   CA 3453  GRA        0.000000
   3454  C          3.6841   23.3970   10.0500   CA 3454  GRA        0.000000
   3455  C          3.6841   24.8150   10.0500   CA 3455  GRA        0.000000
   3456  C          4.9121   25.5240   10.0500   CA 3456  GRA        0.000000
   3457  C          7.3681   22.6880   10.0500   CA 3457  GRA        0.000000
   3458  C          6.1401   23.3970   10.0500   CA 3458  GRA        0.000000
   3459  C          6.1401   24.8150   10.0500   CA 3459  GRA        0.000000
   3460  C          7.3681   25.5240   10.0500   CA 3460  GRA        0.000000
   3461  C          9.8242   22.6880   10.0500   CA 3461  GRA        0.000000
   3462  C          8.5962   23.3970   10.0500   CA 3462  GRA        0.000000
   3463  C          8.5962   24.8150   10.0500   CA 3463  GRA        0.000000
   3464  C          9.8242   25.5240   10.0500   CA 3464  GRA        0.000000
   3465  C         12.2802   22.6880   10.0500   CA 3465  GRA        0.000000
   3466  C         11.0522   23.3970   10.0500   CA 3466  GRA        0.000000
   3467  C         11.0522   24.8150   10.0500   CA 3467  GRA        0.000000
   3468  C         12.2802   25.5240   10.0500   CA 3468  GRA        0.000000
   3469  C         14.7363   22.6880   10.0500   CA 3469  GRA        0.000000
   3470  C         13.5083   23.3970   10.0500   CA 3470  GRA        0.000000
   3471  C         13.5083   24.8150   10.0500   CA 3471  GRA        0.000000
   3472  C         14.7363   25.5240   10.0500   CA 3472  GRA        0.000000
   3473  C         17.1923   22.6880   10.0500   CA 3473  GRA        0.000000
   3474  C         15.9643   23.3970   10.0500   CA 3474  GRA        0.000000
   3475  C         15.9643   24.8150   10.0500   CA 3475  GRA        0.000000
   3476  C         17.1923   25.5240   10.0500   CA 3476  GRA        0.000000
   3477  C         19.6484   22.6880   10.0500   CA 3477  GRA        0.000000
   3478  C         18.4204   23.3970   10.0500   CA 3478  GRA        0.000000
   3479  C         18.4204   24.8150   10.0500   CA 3479  GRA        0.000000
   3480  C         19.6484   25.5240   10.0500   CA 3480  GRA        0.000000
   3481  C         22.1044   22.6880   10.0500   CA 3481  GRA        0.000000
   3482  C         20.8764   23.3970   10.0500   CA 3482  GRA        0.000000
   3483  C         20.8764   24.8150   10.0500   CA 3483  GRA        0.000000
   3484  C         22.1044   25.5240   10.0500   CA 3484  GRA        0.000000
   3485  C         24.5605   22.6880   10.0500   CA 3485  GRA        0.000000
   3486  C         23.3325   23.3970   10.0500   CA 3486  GRA        0.000000
   3487  C         23.3325   24.8150   10.0500   CA 3487  GRA        0.000000
   3488  C         24.5605   25.5240   10.0500   CA 3488  GRA        0.000000
   3489  C         27.0165   22.6880   10.0500   CA 3489  GRA        0.000000
   3490  C         25.7885   23.3970   10.0500   CA 3490  GRA        0.000000
   3491  C         25.7885   24.8150   10.0500   CA 3491  GRA        0.000000
   3492  C         27.0165   25.5240   10.0500   CA 3492  GRA        0.000000
   3493  C         29.4726   22.6880   10.0500   CA 3493  GRA        0.000000
   3494  C         28.2446   23.3970   10.0500   CA 3494  GRA        0.000000
   3495  C         28.2446   24.8150   10.0500   CA 3495  GRA        0.000000
   3496  C         29.4726   25.5240   10.0500   CA 3496  GRA        0.000000
   3497  C         31.9286   22.6880   10.0500   CA 3497  GRA        0.000000
   3498  C         30.7006   23.3970   10.0500   CA 3498  GRA        0.000000
   3499  C         30.7006   24.8150   10.0500   CA 3499  GRA        0.000000
   3500  C         31.9286   25.5240   10.0500   CA 3500  GRA        0.000000
   3501  C         34.3847   22.6880   10.0500   CA 3501  GRA        0.000000
   3502  C         33.1566   23.3970   10.0500   CA 3502  GRA        0.000000
   3503  C         33.1566   24.8150   10.0500   CA 3503  GRA        0.000000
   3504  C         34.3847   25.5240   10.0500   CA 3504  GRA        0.000000
   3505  C         36.8407   22.6880   10.0500   CA 3505  GRA        0.000000
   3506  C         35.6127   23.3970   10.0500   CA 3506  GRA        0.000000
   3507  C         35.6127   24.8150   10.0500   CA 3507  GRA        0.000000
   3508  C         36.8407   25.5240   10.0500   CA 3508  GRA        0.000000
   3509  C         39.2968   22.6880   10.0500   CA 3509  GRA        0.000000
   3510  C         38.0687   23.3970   10.0500   CA 3510  GRA        0.000000
   3511  C         38.0687   24.8150   10.0500   CA 3511  GRA        0.000000
   3512  C         39.2968   25.5240   10.0500   CA 3512  GRA        0.000000
   3513  C         41.7528   22.6880   10.0500   CA 3513  GRA        0.000000
   3514  C         40.5248   23.3970   10.0500   CA 3514  GRA        0.000000
   3515  C         40.5248   24.8150   10.0500   CA 3515  GRA        0.000000
   3516  C         41.7528   25.5240   10.0500   CA 3516  GRA        0.000000
   3517  C         44.2089   22.6880   10.0500   CA 3517  GRA        0.000000
   3518  C         42.9808   23.3970   10.0500   CA 3518  GRA        0.000000
   3519  C         42.9808   24.8150   10.0500   CA 3519  GRA        0.000000
   3520  C         44.2089   25.5240   10.0500   CA 3520  GRA        0.000000
   3521  C         46.6649   22.6880   10.0500   CA 3521  GRA        0.000000
   3522  C         45.4369   23.3970   10.0500   CA 3522  GRA        0.000000
   3523  C         45.4369   24.8150   10.0500   CA 3523  GRA        0.000000
   3524  C         46.6649   25.5240   10.0500   CA 3524  GRA        0.000000
   3525  C         49.1210   22.6880   10.0500   CA 3525  GRA        0.000000
   3526  C         47.8929   23.3970   10.0500   CA 3526  GRA        0.000000
   3527  C         47.8929   24.8150   10.0500   CA 3527  GRA        0.000000
   3528  C         49.1210   25.5240   10.0500   CA 3528  GRA        0.000000
   3529  C          0.0000   26.9420   10.0500   CA 3529  GRA        0.000000
   3530  C         -1.2280   27.6510   10.0500   CA 3530  GRA        0.000000
   3531  C         -1.2280   29.0690   10.0500   CA 3531  GRA        0.000000
   3532  C          0.0000   29.7780   10.0500   CA 3532  GRA        0.000000
   3533  C          2.4560   26.9420   10.0500   CA 3533  GRA        0.000000
   3534  C          1.2280   27.6510   10.0500   CA 3534  GRA        0.000000
   3535  C          1.2280   29.0690   10.0500   CA 3535  GRA        0.000000
   3536  C          2.4560   29.7780   10.0500   CA 3536  GRA        0.000000
   3537  C          4.9121   26.9420   10.0500   CA 3537  GRA        0.000000
   3538  C          3.6841   27.6510   10.0500   CA 3538  GRA        0.000000
   3539  C          3.6841   29.0690   10.0500   CA 3539  GRA        0.000000
   3540  C          4.9121   29.7780   10.0500   CA 3540  GRA        0.000000
   3541  C          7.3681   26.9420   10.0500   CA 3541  GRA        0.000000
   3542  C          6.1401   27.6510   10.0500   CA 3542  GRA        0.000000
   3543  C          6.1401   29.0690   10.0500   CA 3543  GRA        0.000000
   3544  C          7.3681   29.7780   10.0500   CA 3544  GRA        0.000000
   3545  C          9.8242   26.9420   10.0500   CA 3545  GRA        0.000000
   3546  C          8.5962   27.6510   10.0500   CA 3546  GRA        0.000000
   3547  C          8.5962   29.0690   10.0500   CA 3547  GRA        0.000000
   3548  C          9.8242   29.7780   10.0500   CA 3548  GRA        0.000000
   3549  C         12.2802   26.9420   10.0500   CA 3549  GRA        0.000000
   3550  C         11.0522   27.6510   10.0500   CA 3550  GRA        0.000000
   3551  C         11.0522   29.0690   10.0500   CA 3551  GRA        0.000000
   3552  C         12.2802   29.7780   10.0500   CA 3552  GRA        0.000000
   3553  C         14.7363   26.9420   10.0500   CA 3553  GRA        0.000000
   3554  C         13.5083   27.6510   10.0500   CA 3554  GRA        0.000000
   3555  C         13.5083   29.0690   10.0500   CA 3555  GRA        0.000000
   3556  C         14.7363   29.7780   10.0500   CA 3556  GRA        0.000000
   3557  C         17.1923   26.9420   10.0500   CA 3557  GRA        0.000000
   3558  C         15.9643   27.6510   10.0500   CA 3558  GRA        0.000000
   3559  C         15.9643   29.0690   10.0500   CA 3559  GRA        0.000000
   3560  C         17.1923   29.7780   10.0500   CA 3560  GRA        0.000000
   3561  C         19.6484   26.9420   10.0500   CA 3561  GRA        0.000000
   3562  C         18.4204   27.6510   10.0500   CA 3562  GRA        0.000000
   3563  C         18.4204   29.0690   10.0500   CA 3563  GRA        0.000000
   3564  C         19.6484   29.7780   10.0500   CA 3564  GRA        0.000000
   3565  C         22.1044   26.9420   10.0500   CA 3565  GRA        0.000000
   3566  C         20.8764   27.6510   10.0500   CA 3566  GRA        0.000000
   3567  C         20.8764   29.0690   10.0500   CA 3567  GRA        0.000000
   3568  C         22.1044   29.7780   10.0500   CA 3568  GRA        0.000000
   3569  C         24.5605   26.9420   10.0500   CA 3569  GRA        0.000000
   3570  C         23.3325   27.6510   10.0500   CA 3570  GRA        0.000000
   3571  C         23.3325   29.0690   10.0500   CA 3571  GRA        0.000000
   3572  C         24.5605   29.7780   10.0500   CA 3572  GRA        0.000000
   3573  C         27.0165   26.9420   10.0500   CA 3573  GRA        0.000000
   3574  C         25.7885   27.6510   10.0500   CA 3574  GRA        0.000000
   3575  C         25.7885   29.0690   10.0500   CA 3575  GRA        0.000000
   3576  C         27.0165   29.7780   10.0500   CA 3576  GRA        0.000000
   3577  C         29.4726   26.9420   10.0500   CA 3577  GRA        0.000000
   3578  C         28.2446   27.6510   10.0500   CA 3578  GRA        0.000000
   3579  C         28.2446   29.0690   10.0500   CA 3579  GRA        0.000000
   3580  C         29.4726   29.7780   10.0500   CA 3580  GRA        0.000000
   3581  C         31.9286   26.9420   10.0500   CA 3581  GRA        0.000000
   3582  C         30.7006   27.6510   10.0500   CA 3582  GRA        0.000000
   3583  C         30.7006   29.0690   10.0500   CA 3583  GRA        0.000000
   3584  C         31.9286   29.7780   10.0500   CA 3584  GRA        0.000000
   3585  C         34.3847   26.9420   10.0500   CA 3585  GRA        0.000000
   3586  C         33.1566   27.6510   10.0500   CA 3586  GRA        0.000000
   3587  C         33.1566   29.0690   10.0500   CA 3587  GRA        0.000000
   3588  C         34.3847   29.7780   10.0500   CA 3588  GRA        0.000000
   3589  C         36.8407   26.9420   10.0500   CA 3589  GRA        0.000000
   3590  C         35.6127   27.6510   10.0500   CA 3590  GRA        0.000000
   3591  C         35.6127   29.0690   10.0500   CA 3591  GRA        0.000000
   3592  C         36.8407   29.7780   10.0500   CA 3592  GRA        0.000000
   3593  C         39.2968   26.9420   10.0500   CA 3593  GRA        0.000000
   3594  C         38.0687   27.6510   10.0500   CA 3594  GRA        0.000000
   3595  C         38.0687   29.0690   10.0500   CA 3595  GRA        0.000000
   3596  C         39.2968   29.7780   10.0500   CA 3596  GRA        0.000000
   3597  C         41.7528   26.9420   10.0500   CA 3597  GRA        0.000000
   3598  C         40.5248   27.6510   10.0500   CA 3598  GRA        0.000000
   3599  C         40.5248   29.0690   10.0500   CA 3599  GRA        0.000000
   3600  C         41.7528   29.7780   10.0500   CA 3600  GRA        0.000000
   3601  C         44.2089   26.9420   10.0500   CA 3601  GRA        0.000000
   3602  C         42.9808   27.6510   10.0500   CA 3602  GRA        0.000000
   3603  C         42.9808   29.0690   10.0500   CA 3603  GRA        0.000000
   3604  C         44.2089   29.7780   10.0500   CA 3604  GRA        0.000000
   3605  C         46.6649   26.9420   10.0500   CA 3605  GRA        0.000000
   3606  C         45.4369   27.6510   10.0500   CA 3606  GRA        0.000000
   3607  C         45.4369   29.0690   10.0500   CA 3607  GRA        0.000000
   3608  C         46.6649   29.7780   10.0500   CA 3608  GRA        0.000000
   3609  C         49.1210   26.9420   10.0500   CA 3609  GRA        0.000000
   3610  C         47.8929   27.6510   10.0500   CA 3610  GRA        0.000000
   3611  C         47.8929   29.0690   10.0500   CA 3611  GRA        0.000000
   3612  C         49.1210   29.7780   10.0500   CA 3612  GRA        0.000000
   3613  C          0.0000   31.1960   10.0500   CA 3613  GRA        0.000000
   3614  C         -1.2280   31.9050   10.0500   CA 3614  GRA        0.000000
   3615  C         -1.2280   33.3230   10.0500   CA 3615  GRA        0.000000
   3616  C          0.0000   34.0320   10.0500   CA 3616  GRA        0.000000
   3617  C          2.4560   31.1960   10.0500   CA 3617  GRA        0.000000
   3618  C          1.2280   31.9050   10.0500   CA 3618  GRA        0.000000
   3619  C          1.2280   33.3230   10.0500   CA 3619  GRA        0.000000
   3620  C          2.4560   34.0320   10.0500   CA 3620  GRA        0.000000
   3621  C          4.9121   31.1960   10.0500   CA 3621  GRA        0.000000
   3622  C          3.6841   31.9050   10.0500   CA 3622  GRA        0.000000
   3623  C          3.6841   33.3230   10.0500   CA 3623  GRA        0.000000
   3624  C          4.9121   34.0320   10.0500   CA 3624  GRA        0.000000
   3625  C          7.3681   31.1960   10.0500   CA 3625  GRA        0.000000
   3626  C          6.1401   31.9050   10.0500   CA 3626  GRA        0.000000
   3627  C          6.1401   33.3230   10.0500   CA 3627  GRA        0.000000
   3628  C          7.3681   34.0320   10.0500   CA 3628  GRA        0.000000
   3629  C          9.8242   31.1960   10.0500   CA 3629  GRA        0.000000
   3630  C          8.5962   31.9050   10.0500   CA 3630  GRA        0.000000
   3631  C          8.5962   33.3230   10.0500   CA 3631  GRA        0.000000
   3632  C          9.8242   34.0320   10.0500   CA 3632  GRA        0.000000
   3633  C         12.2802   31.1960   10.0500   CA 3633  GRA        0.000000
   3634  C         11.0522   31.9050   10.0500   CA 3634  GRA        0.000000
   3635  C         11.0522   33.3230   10.0500   CA 3635  GRA        0.000000
   3636  C         12.2802   34.0320   10.0500   CA 3636  GRA        0.000000
   3637  C         14.7363   31.1960   10.0500   CA 3637  GRA        0.000000
   3638  C         13.5083   31.9050   10.0500   CA 3638  GRA        0.000000
   3639  C         13.5083   33.3230   10.0500   CA 3639  GRA        0.000000
   3640  C         14.7363   34.0320   10.0500   CA 3640  GRA        0.000000
   3641  C         17.1923   31.1960   10.0500   CA 3641  GRA        0.000000
   3642  C         15.9643   31.9050   10.0500   CA 3642  GRA        0.000000
   3643  C         15.9643   33.3230   10.0500   CA 3643  GRA        0.000000
   3644  C         17.1923   34.0320   10.0500   CA 3644  GRA        0.000000
   3645  C         19.6484   31.1960   10.0500   CA 3645  GRA        0.000000
   3646  C         18.4204   31.9050   10.0500   CA 3646  GRA        0.000000
   3647  C         18.4204   33.3230   10.0500   CA 3647  GRA        0.000000
   3648  C         19.6484   34.0320   10.0500   CA 3648  GRA        0.000000
   3649  C         22.1044   31.1960   10.0500   CA 3649  GRA        0.000000
   3650  C         20.8764   31.9050   10.0500   CA 3650  GRA        0.000000
   3651  C         20.8764   33.3230   10.0500   CA 3651  GRA        0.000000
   3652  C         22.1044   34.0320   10.0500   CA 3652  GRA        0.000000
   3653  C         24.5605   31.1960   10.0500   CA 3653  GRA        0.000000
   3654  C         23.3325   31.9050   10.0500   CA 3654  GRA        0.000000
   3655  C         23.3325   33.3230   10.0500   CA 3655  GRA        0.000000
   3656  C         24.5605   34.0320   10.0500   CA 3656  GRA        0.000000
   3657  C         27.0165   31.1960   10.0500   CA 3657  GRA        0.000000
   3658  C         25.7885   31.9050   10.0500   CA 3658  GRA        0.000000
   3659  C         25.7885   33.3230   10.0500   CA 3659  GRA        0.000000
   3660  C         27.0165   34.0320   10.0500   CA 3660  GRA        0.000000
   3661  C         29.4726   31.1960   10.0500   CA 3661  GRA        0.000000
   3662  C         28.2446   31.9050   10.0500   CA 3662  GRA        0.000000
   3663  C         28.2446   33.3230   10.0500   CA 3663  GRA        0.000000
   3664  C         29.4726   34.0320   10.0500   CA 3664  GRA        0.000000
   3665  C         31.9286   31.1960   10.0500   CA 3665  GRA        0.000000
   3666  C         30.7006   31.9050   10.0500   CA 3666  GRA        0.000000
   3667  C         30.7006   33.3230   10.0500   CA 3667  GRA        0.000000
   3668  C         31.9286   34.0320   10.0500   CA 3668  GRA        0.000000
   3669  C         34.3847   31.1960   10.0500   CA 3669  GRA        0.000000
   3670  C         33.1566   31.9050   10.0500   CA 3670  GRA        0.000000
   3671  C         33.1566   33.3230   10.0500   CA 3671  GRA        0.000000
   3672  C         34.3847   34.0320   10.0500   CA 3672  GRA        0.000000
   3673  C         36.8407   31.1960   10.0500   CA 3673  GRA        0.000000
   3674  C         35.6127   31.9050   10.0500   CA 3674  GRA        0.000000
   3675  C         35.6127   33.3230   10.0500   CA 3675  GRA        0.000000
   3676  C         36.8407   34.0320   10.0500   CA 3676  GRA        0.000000
   3677  C         39.2968   31.1960   10.0500   CA 3677  GRA        0.000000
   3678  C         38.0687   31.9050   10.0500   CA 3678  GRA        0.000000
   3679  C         38.0687   33.3230   10.0500   CA 3679  GRA        0.000000
   3680  C         39.2968   34.0320   10.0500   CA 3680  GRA        0.000000
   3681  C         41.7528   31.1960   10.0500   CA 3681  GRA        0.000000
   3682  C         40.5248   31.9050   10.0500   CA 3682  GRA        0.000000
   3683  C         40.5248   33.3230   10.0500   CA 3683  GRA        0.000000
   3684  C         41.7528   34.0320   10.0500   CA 3684  GRA        0.000000
   3685  C         44.2089   31.1960   10.0500   CA 3685  GRA        0.000000
   3686  C         42.9808   31.9050   10.0500   CA 3686  GRA        0.000000
   3687  C         42.9808   33.3230   10.0500   CA 3687  GRA        0.000000
   3688  C         44.2089   34.0320   10.0500   CA 3688  GRA        0.000000
   3689  C         46.6649   31.1960   10.0500   CA 3689  GRA        0.000000
   3690  C         45.4369   31.9050   10.0500   CA 3690  GRA        0.000000
   3691  C         45.4369   33.3230   10.0500   CA 3691  GRA        0.000000
   3692  C         46.6649   34.0320   10.0500   CA 3692  GRA        0.000000
   3693  C         49.1210   31.1960   10.0500   CA 3693  GRA        0.000000
   3694  C         47.8929   31.9050   10.0500   CA 3694  GRA        0.000000
   3695  C         47.8929   33.3230   10.0500   CA 3695  GRA        0.000000
   3696  C         49.1210   34.0320   10.0500   CA 3696  GRA        0.000000
   3697  C          0.0000   35.4500   10.0500   CA 3697  GRA        0.000000
   3698  C         -1.2280   36.1590   10.0500   CA 3698  GRA        0.000000
   3699  C         -1.2280   37.5770   10.0500   CA 3699  GRA        0.000000
   3700  C          0.0000   38.2860   10.0500   CA 3700  GRA        0.000000
   3701  C          2.4560   35.4500   10.0500   CA 3701  GRA        0.000000
   3702  C          1.2280   36.1590   10.0500   CA 3702  GRA        0.000000
   3703  C          1.2280   37.5770   10.0500   CA 3703  GRA        0.000000
   3704  C          2.4560   38.2860   10.0500   CA 3704  GRA        0.000000
   3705  C          4.9121   35.4500   10.0500   CA 3705  GRA        0.000000
   3706  C          3.6841   36.1590   10.0500   CA 3706  GRA        0.000000
   3707  C          3.6841   37.5770   10.0500   CA 3707  GRA        0.000000
   3708  C          4.9121   38.2860   10.0500   CA 3708  GRA        0.000000
   3709  C          7.3681   35.4500   10.0500   CA 3709  GRA        0.000000
   3710  C          6.1401   36.1590   10.0500   CA 3710  GRA        0.000000
   3711  C          6.1401   37.5770   10.0500   CA 3711  GRA        0.000000
   3712  C          7.3681   38.2860   10.0500   CA 3712  GRA        0.000000
   3713  C          9.8242   35.4500   10.0500   CA 3713  GRA        0.000000
   3714  C          8.5962   36.1590   10.0500   CA 3714  GRA        0.000000
   3715  C          8.5962   37.5770   10.0500   CA 3715  GRA        0.000000
   3716  C          9.8242   38.2860   10.0500   CA 3716  GRA        0.000000
   3717  C         12.2802   35.4500   10.0500   CA 3717  GRA        0.000000
   3718  C         11.0522   36.1590   10.0500   CA 3718  GRA        0.000000
   3719  C         11.0522   37.5770   10.0500   CA 3719  GRA        0.000000
   3720  C         12.2802   38.2860   10.0500   CA 3720  GRA        0.000000
   3721  C         14.7363   35.4500   10.0500   CA 3721  GRA        0.000000
   3722  C         13.5083   36.1590   10.0500   CA 3722  GRA        0.000000
   3723  C         13.5083   37.5770   10.0500   CA 3723  GRA        0.000000
   3724  C         14.7363   38.2860   10.0500   CA 3724  GRA        0.000000
   3725  C         17.1923   35.4500   10.0500   CA 3725  GRA        0.000000
   3726  C         15.9643   36.1590   10.0500   CA 3726  GRA        0.000000
   3727  C         15.9643   37.5770   10.0500   CA 3727  GRA        0.000000
   3728  C         17.1923   38.2860   10.0500   CA 3728  GRA        0.000000
   3729  C         19.6484   35.4500   10.0500   CA 3729  GRA        0.000000
   3730  C         18.4204   36.1590   10.0500   CA 3730  GRA        0.000000
   3731  C         18.4204   37.5770   10.0500   CA 3731  GRA        0.000000
   3732  C         19.6484   38.2860   10.0500   CA 3732  GRA        0.000000
   3733  C         22.1044   35.4500   10.0500   CA 3733  GRA        0.000000
   3734  C         20.8764   36.1590   10.0500   CA 3734  GRA        0.000000
   3735  C         20.8764   37.5770   10.0500   CA 3735  GRA        0.000000
   3736  C         22.1044   38.2860   10.0500   CA 3736  GRA        0.000000
   3737  C         24.5605   35.4500   10.0500   CA 3737  GRA        0.000000
   3738  C         23.3325   36.1590   10.0500   CA 3738  GRA        0.000000
   3739  C         23.3325   37.5770   10.0500   CA 3739  GRA        0.000000
   3740  C         24.5605   38.2860   10.0500   CA 3740  GRA        0.000000
   3741  C         27.0165   35.4500   10.0500   CA 3741  GRA        0.000000
   3742  C         25.7885   36.1590   10.0500   CA 3742  GRA        0.000000
   3743  C         25.7885   37.5770   10.0500   CA 3743  GRA        0.000000
   3744  C         27.0165   38.2860   10.0500   CA 3744  GRA        0.000000
   3745  C         29.4726   35.4500   10.0500   CA 3745  GRA        0.000000
   3746  C         28.2446   36.1590   10.0500   CA 3746  GRA        0.000000
   3747  C         28.2446   37.5770   10.0500   CA 3747  GRA        0.000000
   3748  C         29.4726   38.2860   10.0500   CA 3748  GRA        0.000000
   3749  C         31.9286   35.4500   10.0500   CA 3749  GRA        0.000000
   3750  C         30.7006   36.1590   10.0500   CA 3750  GRA        0.000000
   3751  C         30.7006   37.5770   10.0500   CA 3751  GRA        0.000000
   3752  C         31.9286   38.2860   10.0500   CA 3752  GRA        0.000000
   3753  C         34.3847   35.4500   10.0500   CA 3753  GRA        0.000000
   3754  C         33.1566   36.1590   10.0500   CA 3754  GRA        0.000000
   3755  C         33.1566   37.5770   10.0500   CA 3755  GRA        0.000000
   3756  C         34.3847   38.2860   10.0500   CA 3756  GRA        0.000000
   3757  C         36.8407   35.4500   10.0500   CA 3757  GRA        0.000000
   3758  C         35.6127   36.1590   10.0500   CA 3758  GRA        0.000000
   3759  C         35.6127   37.5770   10.0500   CA 3759  GRA        0.000000
   3760  C         36.8407   38.2860   10.0500   CA 3760  GRA        0.000000
   3761  C         39.2968   35.4500   10.0500   CA 3761  GRA        0.000000
   3762  C         38.0687   36.1590   10.0500   CA 3762  GRA        0.000000
   3763  C         38.0687   37.5770   10.0500   CA 3763  GRA        0.000000
   3764  C         39.2968   38.2860   10.0500   CA 3764  GRA        0.000000
   3765  C         41.7528   35.4500   10.0500   CA 3765  GRA        0.000000
   3766  C         40.5248   36.1590   10.0500   CA 3766  GRA        0.000000
   3767  C         40.5248   37.5770   10.0500   CA 3767  GRA        0.000000
   3768  C         41.7528   38.2860   10.0500   CA 3768  GRA        0.000000
   3769  C         44.2089   35.4500   10.0500   CA 3769  GRA        0.000000
   3770  C         42.9808   36.1590   10.0500   CA 3770  GRA        0.000000
   3771  C         42.9808   37.5770   10.0500   CA 3771  GRA        0.000000
   3772  C         44.2089   38.2860   10.0500   CA 3772  GRA        0.000000
   3773  C         46.6649   35.4500   10.0500   CA 3773  GRA        0.000000
   3774  C         45.4369   36.1590   10.0500   CA 3774  GRA        0.000000
   3775  C         45.4369   37.5770   10.0500   CA 3775  GRA        0.000000
   3776  C         46.6649   38.2860   10.0500   CA 3776  GRA        0.000000
   3777  C         49.1210   35.4500   10.0500   CA 3777  GRA        0.000000
   3778  C         47.8929   36.1590   10.0500   CA 3778  GRA        0.000000
   3779  C         47.8929   37.5770   10.0500   CA 3779  GRA        0.000000
   3780  C         49.1210   38.2860   10.0500   CA 3780  GRA        0.000000
   3781  C          0.0000   39.7040   10.0500   CA 3781  GRA        0.000000
   3782  C         -1.2280   40.4130   10.0500   CA 3782  GRA        0.000000
   3783  C         -1.2280   41.8310   10.0500   CA 3783  GRA        0.000000
   3784  C          0.0000   42.5400   10.0500   CA 3784  GRA        0.000000
   3785  C          2.4560   39.7040   10.0500   CA 3785  GRA        0.000000
   3786  C          1.2280   40.4130   10.0500   CA 3786  GRA        0.000000
   3787  C          1.2280   41.8310   10.0500   CA 3787  GRA        0.000000
   3788  C          2.4560   42.5400   10.0500   CA 3788  GRA        0.000000
   3789  C          4.9121   39.7040   10.0500   CA 3789  GRA        0.000000
   3790  C          3.6841   40.4130   10.0500   CA 3790  GRA        0.000000
   3791  C          3.6841   41.8310   10.0500   CA 3791  GRA        0.000000
   3792  C          4.9121   42.5400   10.0500   CA 3792  GRA        0.000000
   3793  C          7.3681   39.7040   10.0500   CA 3793  GRA        0.000000
   3794  C          6.1401   40.4130   10.0500   CA 3794  GRA        0.000000
   3795  C          6.1401   41.8310   10.0500   CA 3795  GRA        0.000000
   3796  C          7.3681   42.5400   10.0500   CA 3796  GRA        0.000000
   3797  C          9.8242   39.7040   10.0500   CA 3797  GRA        0.000000
   3798  C          8.5962   40.4130   10.0500   CA 3798  GRA        0.000000
   3799  C          8.5962   41.8310   10.0500   CA 3799  GRA        0.000000
   3800  C          9.8242   42.5400   10.0500   CA 3800  GRA        0.000000
   3801  C         12.2802   39.7040   10.0500   CA 3801  GRA        0.000000
   3802  C         11.0522   40.4130   10.0500   CA 3802  GRA        0.000000
   3803  C         11.0522   41.8310   10.0500   CA 3803  GRA        0.000000
   3804  C         12.2802   42.5400   10.0500   CA 3804  GRA        0.000000
   3805  C         14.7363   39.7040   10.0500   CA 3805  GRA        0.000000
   3806  C         13.5083   40.4130   10.0500   CA 3806  GRA        0.000000
   3807  C         13.5083   41.8310   10.0500   CA 3807  GRA        0.000000
   3808  C         14.7363   42.5400   10.0500   CA 3808  GRA        0.000000
   3809  C         17.1923   39.7040   10.0500   CA 3809  GRA        0.000000
   3810  C         15.9643   40.4130   10.0500   CA 3810  GRA        0.000000
   3811  C         15.9643   41.8310   10.0500   CA 3811  GRA        0.000000
   3812  C         17.1923   42.5400   10.0500   CA 3812  GRA        0.000000
   3813  C         19.6484   39.7040   10.0500   CA 3813  GRA        0.000000
   3814  C         18.4204   40.4130   10.0500   CA 3814  GRA        0.000000
   3815  C         18.4204   41.8310   10.0500   CA 3815  GRA        0.000000
   3816  C         19.6484   42.5400   10.0500   CA 3816  GRA        0.000000
   3817  C         22.1044   39.7040   10.0500   CA 3817  GRA        0.000000
   3818  C         20.8764   40.4130   10.0500   CA 3818  GRA        0.000000
   3819  C         20.8764   41.8310   10.0500   CA 3819  GRA        0.000000
   3820  C         22.1044   42.5400   10.0500   CA 3820  GRA        0.000000
   3821  C         24.5605   39.7040   10.0500   CA 3821  GRA        0.000000
   3822  C         23.3325   40.4130   10.0500   CA 3822  GRA        0.000000
   3823  C         23.3325   41.8310   10.0500   CA 3823  GRA        0.000000
   3824  C         24.5605   42.5400   10.0500   CA 3824  GRA        0.000000
   3825  C         27.0165   39.7040   10.0500   CA 3825  GRA        0.000000
   3826  C         25.7885   40.4130   10.0500   CA 3826  GRA        0.000000
   3827  C         25.7885   41.8310   10.0500   CA 3827  GRA        0.000000
   3828  C         27.0165   42.5400   10.0500   CA 3828  GRA        0.000000
   3829  C         29.4726   39.7040   10.0500   CA 3829  GRA        0.000000
   3830  C         28.2446   40.4130   10.0500   CA 3830  GRA        0.000000
   3831  C         28.2446   41.8310   10.0500   CA 3831  GRA        0.000000
   3832  C         29.4726   42.5400   10.0500   CA 3832  GRA        0.000000
   3833  C         31.9286   39.7040   10.0500   CA 3833  GRA        0.000000
   3834  C         30.7006   40.4130   10.0500   CA 3834  GRA        0.000000
   3835  C         30.7006   41.8310   10.0500   CA 3835  GRA        0.000000
   3836  C         31.9286   42.5400   10.0500   CA 3836  GRA        0.000000
   3837  C         34.3847   39.7040   10.0500   CA 3837  GRA        0.000000
   3838  C         33.1566   40.4130   10.0500   CA 3838  GRA        0.000000
   3839  C         33.1566   41.8310   10.0500   CA 3839  GRA        0.000000
   3840  C         34.3847   42.5400   10.0500   CA 3840  GRA        0.000000
   3841  C         36.8407   39.7040   10.0500   CA 3841  GRA        0.000000
   3842  C         35.6127   40.4130   10.0500   CA 3842  GRA        0.000000
   3843  C         35.6127   41.8310   10.0500   CA 3843  GRA        0.000000
   3844  C         36.8407   42.5400   10.0500   CA 3844  GRA        0.000000
   3845  C         39.2968   39.7040   10.0500   CA 3845  GRA        0.000000
   3846  C         38.0687   40.4130   10.0500   CA 3846  GRA        0.000000
   3847  C         38.0687   41.8310   10.0500   CA 3847  GRA        0.000000
   3848  C         39.2968   42.5400   10.0500   CA 3848  GRA        0.000000
   3849  C         41.7528   39.7040   10.0500   CA 3849  GRA        0.000000
   3850  C         40.5248   40.4130   10.0500   CA 3850  GRA        0.000000
   3851  C         40.5248   41.8310   10.0500   CA 3851  GRA        0.000000
   3852  C         41.7528   42.5400   10.0500   CA 3852  GRA        0.000000
   3853  C         44.2089   39.7040   10.0500   CA 3853  GRA        0.000000
   3854  C         42.9808   40.4130   10.0500   CA 3854  GRA        0.000000
   3855  C         42.9808   41.8310   10.0500   CA 3855  GRA        0.000000
   3856  C         44.2089   42.5400   10.0500   CA 3856  GRA        0.000000
   3857  C         46.6649   39.7040   10.0500   CA 3857  GRA        0.000000
   3858  C         45.4369   40.4130   10.0500   CA 3858  GRA        0.000000
   3859  C         45.4369   41.8310   10.0500   CA 3859  GRA        0.000000
   3860  C         46.6649   42.5400   10.0500   CA 3860  GRA        0.000000
   3861  C         49.1210   39.7040   10.0500   CA 3861  GRA        0.000000
   3862  C         47.8929   40.4130   10.0500   CA 3862  GRA        0.000000
   3863  C         47.8929   41.8310   10.0500   CA 3863  GRA        0.000000
   3864  C         49.1210   42.5400   10.0500   CA 3864  GRA        0.000000
   3865  C          0.0000   43.9580   10.0500   CA 3865  GRA        0.000000
   3866  C         -1.2280   44.6670   10.0500   CA 3866  GRA        0.000000
   3867  C         -1.2280   46.0850   10.0500   CA 3867  GRA        0.000000
   3868  C          0.0000   46.7940   10.0500   CA 3868  GRA        0.000000
   3869  C          2.4560   43.9580   10.0500   CA 3869  GRA        0.000000
   3870  C          1.2280   44.6670   10.0500   CA 3870  GRA        0.000000
   3871  C          1.2280   46.0850   10.0500   CA 3871  GRA        0.000000
   3872  C          2.4560   46.7940   10.0500   CA 3872  GRA        0.000000
   3873  C          4.9121   43.9580   10.0500   CA 3873  GRA        0.000000
   3874  C          3.6841   44.6670   10.0500   CA 3874  GRA        0.000000
   3875  C          3.6841   46.0850   10.0500   CA 3875  GRA        0.000000
   3876  C          4.9121   46.7940   10.0500   CA 3876  GRA        0.000000
   3877  C          7.3681   43.9580   10.0500   CA 3877  GRA        0.000000
   3878  C          6.1401   44.6670   10.0500   CA 3878  GRA        0.000000
   3879  C          6.1401   46.0850   10.0500   CA 3879  GRA        0.000000
   3880  C          7.3681   46.7940   10.0500   CA 3880  GRA        0.000000
   3881  C          9.8242   43.9580   10.0500   CA 3881  GRA        0.000000
   3882  C          8.5962   44.6670   10.0500   CA 3882  GRA        0.000000
   3883  C          8.5962   46.0850   10.0500   CA 3883  GRA        0.000000
   3884  C          9.8242   46.7940   10.0500   CA 3884  GRA        0.000000
   3885  C         12.2802   43.9580   10.0500   CA 3885  GRA        0.000000
   3886  C         11.0522   44.6670   10.0500   CA 3886  GRA        0.000000
   3887  C         11.0522   46.0850   10.0500   CA 3887  GRA        0.000000
   3888  C         12.2802   46.7940   10.0500   CA 3888  GRA        0.000000
   3889  C         14.7363   43.9580   10.0500   CA 3889  GRA        0.000000
   3890  C         13.5083   44.6670   10.0500   CA 3890  GRA        0.000000
   3891  C         13.5083   46.0850   10.0500   CA 3891  GRA        0.000000
   3892  C         14.7363   46.7940   10.0500   CA 3892  GRA        0.000000
   3893  C         17.1923   43.9580   10.0500   CA 3893  GRA        0.000000
   3894  C         15.9643   44.6670   10.0500   CA 3894  GRA        0.000000
   3895  C         15.9643   46.0850   10.0500   CA 3895  GRA        0.000000
   3896  C         17.1923   46.7940   10.0500   CA 3896  GRA        0.000000
   3897  C         19.6484   43.9580   10.0500   CA 3897  GRA        0.000000
   3898  C         18.4204   44.6670   10.0500   CA 3898  GRA        0.000000
   3899  C         18.4204   46.0850   10.0500   CA 3899  GRA        0.000000
   3900  C         19.6484   46.7940   10.0500   CA 3900  GRA        0.000000
   3901  C         22.1044   43.9580   10.0500   CA 3901  GRA        0.000000
   3902  C         20.8764   44.6670   10.0500   CA 3902  GRA        0.000000
   3903  C         20.8764   46.0850   10.0500   CA 3903  GRA        0.000000
   3904  C         22.1044   46.7940   10.0500   CA 3904  GRA        0.000000
   3905  C         24.5605   43.9580   10.0500   CA 3905  GRA        0.000000
   3906  C         23.3325   44.6670   10.0500   CA 3906  GRA        0.000000
   3907  C         23.3325   46.0850   10.0500   CA 3907  GRA        0.000000
   3908  C         24.5605   46.7940   10.0500   CA 3908  GRA        0.000000
   3909  C         27.0165   43.9580   10.0500   CA 3909  GRA        0.000000
   3910  C         25.7885   44.6670   10.0500   CA 3910  GRA        0.000000
   3911  C         25.7885   46.0850   10.0500   CA 3911  GRA        0.000000
   3912  C         27.0165   46.7940   10.0500   CA 3912  GRA        0.000000
   3913  C         29.4726   43.9580   10.0500   CA 3913  GRA        0.000000
   3914  C         28.2446   44.6670   10.0500   CA 3914  GRA        0.000000
   3915  C         28.2446   46.0850   10.0500   CA 3915  GRA        0.000000
   3916  C         29.4726   46.7940   10.0500   CA 3916  GRA        0.000000
   3917  C         31.9286   43.9580   10.0500   CA 3917  GRA        0.000000
   3918  C         30.7006   44.6670   10.0500   CA 3918  GRA        0.000000
   3919  C         30.7006   46.0850   10.0500   CA 3919  GRA        0.000000
   3920  C         31.9286   46.7940   10.0500   CA 3920  GRA        0.000000
   3921  C         34.3847   43.9580   10.0500   CA 3921  GRA        0.000000
   3922  C         33.1566   44.6670   10.0500   CA 3922  GRA        0.000000
   3923  C         33.1566   46.0850   10.0500   CA 3923  GRA        0.000000
   3924  C         34.3847   46.7940   10.0500   CA 3924  GRA        0.000000
   3925  C         36.8407   43.9580   10.0500   CA 3925  GRA        0.000000
   3926  C         35.6127   44.6670   10.0500   CA 3926  GRA        0.000000
   3927  C         35.6127   46.0850   10.0500   CA 3927  GRA        0.000000
   3928  C         36.8407   46.7940   10.0500   CA 3928  GRA        0.000000
   3929  C         39.2968   43.9580   10.0500   CA 3929  GRA        0.000000
   3930  C         38.0687   44.6670   10.0500   CA 3930  GRA        0.000000
   3931  C         38.0687   46.0850   10.0500   CA 3931  GRA        0.000000
   3932  C         39.2968   46.7940   10.0500   CA 3932  GRA        0.000000
   3933  C         41.7528   43.9580   10.0500   CA 3933  GRA        0.000000
   3934  C         40.5248   44.6670   10.0500   CA 3934  GRA        0.000000
   3935  C         40.5248   46.0850   10.0500   CA 3935  GRA        0.000000
   3936  C         41.7528   46.7940   10.0500   CA 3936  GRA        0.000000
   3937  C         44.2089   43.9580   10.0500   CA 3937  GRA        0.000000
   3938  C         42.9808   44.6670   10.0500   CA 3938  GRA        0.000000
   3939  C         42.9808   46.0850   10.0500   CA 3939  GRA        0.000000
   3940  C         44.2089   46.7940   10.0500   CA 3940  GRA        0.000000
   3941  C         46.6649   43.9580   10.0500   CA 3941  GRA        0.000000
   3942  C         45.4369   44.6670   10.0500   CA 3942  GRA        0.000000
   3943  C         45.4369   46.0850   10.0500   CA 3943  GRA        0.000000
   3944  C         46.6649   46.7940   10.0500   CA 3944  GRA        0.000000
   3945  C         49.1210   43.9580   10.0500   CA 3945  GRA        0.000000
   3946  C         47.8929   44.6670   10.0500   CA 3946  GRA        0.000000
   3947  C         47.8929   46.0850   10.0500   CA 3947  GRA        0.000000
   3948  C         49.1210   46.7940   10.0500   CA 3948  GRA        0.000000
   3949  C          0.0000   48.2120   10.0500   CA 3949  GRA        0.000000
   3950  C         -1.2280   48.9210   10.0500   CA 3950  GRA        0.000000
   3951  C         -1.2280   50.3390   10.0500   CA 3951  GRA        0.000000
   3952  C          0.0000   51.0480   10.0500   CA 3952  GRA        0.000000
   3953  C          2.4560   48.2120   10.0500   CA 3953  GRA        0.000000
   3954  C          1.2280   48.9210   10.0500   CA 3954  GRA        0.000000
   3955  C          1.2280   50.3390   10.0500   CA 3955  GRA        0.000000
   3956  C          2.4560   51.0480   10.0500   CA 3956  GRA        0.000000
   3957  C          4.9121   48.2120   10.0500   CA 3957  GRA        0.000000
   3958  C          3.6841   48.9210   10.0500   CA 3958  GRA        0.000000
   3959  C          3.6841   50.3390   10.0500   CA 3959  GRA        0.000000
   3960  C          4.9121   51.0480   10.0500   CA 3960  GRA        0.000000
   3961  C          7.3681   48.2120   10.0500   CA 3961  GRA        0.000000
   3962  C          6.1401   48.9210   10.0500   CA 3962  GRA        0.000000
   3963  C          6.1401   50.3390   10.0500   CA 3963  GRA        0.000000
   3964  C          7.3681   51.0480   10.0500   CA 3964  GRA        0.000000
   3965  C          9.8242   48.2120   10.0500   CA 3965  GRA        0.000000
   3966  C          8.5962   48.9210   10.0500   CA 3966  GRA        0.000000
   3967  C          8.5962   50.3390   10.0500   CA 3967  GRA        0.000000
   3968  C          9.8242   51.0480   10.0500   CA 3968  GRA        0.000000
   3969  C         12.2802   48.2120   10.0500   CA 3969  GRA        0.000000
   3970  C         11.0522   48.9210   10.0500   CA 3970  GRA        0.000000
   3971  C         11.0522   50.3390   10.0500   CA 3971  GRA        0.000000
   3972  C         12.2802   51.0480   10.0500   CA 3972  GRA        0.000000
   3973  C         14.7363   48.2120   10.0500   CA 3973  GRA        0.000000
   3974  C         13.5083   48.9210   10.0500   CA 3974  GRA        0.000000
   3975  C         13.5083   50.3390   10.0500   CA 3975  GRA        0.000000
   3976  C         14.7363   51.0480   10.0500   CA 3976  GRA        0.000000
   3977  C         17.1923   48.2120   10.0500   CA 3977  GRA        0.000000
   3978  C         15.9643   48.9210   10.0500   CA 3978  GRA        0.000000
   3979  C         15.9643   50.3390   10.0500   CA 3979  GRA        0.000000
   3980  C         17.1923   51.0480   10.0500   CA 3980  GRA        0.000000
   3981  C         19.6484   48.2120   10.0500   CA 3981  GRA        0.000000
   3982  C         18.4204   48.9210   10.0500   CA 3982  GRA        0.000000
   3983  C         18.4204   50.3390   10.0500   CA 3983  GRA        0.000000
   3984  C         19.6484   51.0480   10.0500   CA 3984  GRA        0.000000
   3985  C         22.1044   48.2120   10.0500   CA 3985  GRA        0.000000
   3986  C         20.8764   48.9210   10.0500   CA 3986  GRA        0.000000
   3987  C         20.8764   50.3390   10.0500   CA 3987  GRA        0.000000
   3988  C         22.1044   51.0480   10.0500   CA 3988  GRA        0.000000
   3989  C         24.5605   48.2120   10.0500   CA 3989  GRA        0.000000
   3990  C         23.3325   48.9210   10.0500   CA 3990  GRA        0.000000
   3991  C         23.3325   50.3390   10.0500   CA 3991  GRA        0.000000
   3992  C         24.5605   51.0480   10.0500   CA 3992  GRA        0.000000
   3993  C         27.0165   48.2120   10.0500   CA 3993  GRA        0.000000
   3994  C         25.7885   48.9210   10.0500   CA 3994  GRA        0.000000
   3995  C         25.7885   50.3390   10.0500   CA 3995  GRA        0.000000
   3996  C         27.0165   51.0480   10.0500   CA 3996  GRA        0.000000
   3997  C         29.4726   48.2120   10.0500   CA 3997  GRA        0.000000
   3998  C         28.2446   48.9210   10.0500   CA 3998  GRA        0.000000
   3999  C         28.2446   50.3390   10.0500   CA 3999  GRA        0.000000
   4000  C         29.4726   51.0480   10.0500   CA 4000  GRA        0.000000
   4001  C         31.9286   48.2120   10.0500   CA 4001  GRA        0.000000
   4002  C         30.7006   48.9210   10.0500   CA 4002  GRA        0.000000
   4003  C         30.7006   50.3390   10.0500   CA 4003  GRA        0.000000
   4004  C         31.9286   51.0480   10.0500   CA 4004  GRA        0.000000
   4005  C         34.3847   48.2120   10.0500   CA 4005  GRA        0.000000
   4006  C         33.1566   48.9210   10.0500   CA 4006  GRA        0.000000
   4007  C         33.1566   50.3390   10.0500   CA 4007  GRA        0.000000
   4008  C         34.3847   51.0480   10.0500   CA 4008  GRA        0.000000
   4009  C         36.8407   48.2120   10.0500   CA 4009  GRA        0.000000
   4010  C         35.6127   48.9210   10.0500   CA 4010  GRA        0.000000
   4011  C         35.6127   50.3390   10.0500   CA 4011  GRA        0.000000
   4012  C         36.8407   51.0480   10.0500   CA 4012  GRA        0.000000
   4013  C         39.2968   48.2120   10.0500   CA 4013  GRA        0.000000
   4014  C         38.0687   48.9210   10.0500   CA 4014  GRA        0.000000
   4015  C         38.0687   50.3390   10.0500   CA 4015  GRA        0.000000
   4016  C         39.2968   51.0480   10.0500   CA 4016  GRA        0.000000
   4017  C         41.7528   48.2120   10.0500   CA 4017  GRA        0.000000
   4018  C         40.5248   48.9210   10.0500   CA 4018  GRA        0.000000
   4019  C         40.5248   50.3390   10.0500   CA 4019  GRA        0.000000
   4020  C         41.7528   51.0480   10.0500   CA 4020  GRA        0.000000
   4021  C         44.2089   48.2120   10.0500   CA 4021  GRA        0.000000
   4022  C         42.9808   48.9210   10.0500   CA 4022  GRA        0.000000
   4023  C         42.9808   50.3390   10.0500   CA 4023  GRA        0.000000
   4024  C         44.2089   51.0480   10.0500   CA 4024  GRA        0.000000
   4025  C         46.6649   48.2120   10.0500   CA 4025  GRA        0.000000
   4026  C         45.4369   48.9210   10.0500   CA 4026  GRA        0.000000
   4027  C         45.4369   50.3390   10.0500   CA 4027  GRA        0.000000
   4028  C         46.6649   51.0480   10.0500   CA 4028  GRA        0.000000
   4029  C         49.1210   48.2120   10.0500   CA 4029  GRA        0.000000
   4030  C         47.8929   48.9210   10.0500   CA 4030  GRA        0.000000
   4031  C         47.8929   50.3390   10.0500   CA 4031  GRA        0.000000
   4032  C         49.1210   51.0480   10.0500   CA 4032  GRA        0.000000
@<TRIPOS>BOND
    1     1     2  1
    2     1     6  1
    3     2     3  1
    4     3     4  1
    5     4     7  1
    6     4    85  1
    7     5     6  1
    8     5    10  1
    9     6     7  1
   10     7     8  1
   11     8    11  1
   12     8    89  1
   13     9    14  1
   14     9    10  1
   15    10    11  1
   16    11    12  1
   17    12    15  1
   18    12    93  1
   19    13    18  1
   20    13    14  1
   21    14    15  1
   22    15    16  1
   23    16    19  1
   24    16    97  1
   25    17    22  1
   26    17    18  1
   27    18    19  1
   28    19    20  1
   29    20    23  1
   30    20   101  1
   31    21    22  1
   32    21    26  1
   33    22    23  1
   34    23    24  1
   35    24    27  1
   36    24   105  1
   37    25    26  1
   38    25    30  1
   39    26    27  1
   40    27    28  1
   41    28    31  1
   42    28   109  1
   43    29    34  1
   44    29    30  1
   45    30    31  1
   46    31    32  1
   47    32    35  1
   48    32   113  1
   49    33    38  1
   50    33    34  1
   51    34    35  1
   52    35    36  1
   53    36    39  1
   54    36   117  1
   55    37    42  1
   56    37    38  1
   57    38    39  1
   58    39    40  1
   59    40    43  1
   60    40   121  1
   61    41    42  1
   62    41    46  1
   63    42    43  1
   64    43    44  1
   65    44    47  1
   66    44   125  1
   67    45    46  1
   68    45    50  1
   69    46    47  1
   70    47    48  1
   71    48    51  1
   72    48   129  1
   73    49    54  1
   74    49    50  1
   75    50    51  1
   76    51    52  1
   77    52    55  1
   78    52   133  1
   79    53    54  1
   80    53    58  1
   81    54    55  1
   82    55    56  1
   83    56    59  1
   84    56   137  1
   85    57    62  1
   86    57    58  1
   87    58    59  1
   88    59    60  1
   89    60    63  1
   90    60   141  1
   91    61    62  1
   92    61    66  1
   93    62    63  1
   94    63    64  1
   95    64    67  1
   96    64   145  1
   97    65    66  1
   98    65    70  1
   99    66    67  1
  100    67    68  1
  101    68    71  1
  102    68   149  1
  103    69    74  1
  104    69    70  1
  105    70    71  1
  106    71    72  1
  107    72    75  1
  108    72   153  1
  109    73    78  1
  110    73    74  1
  111    74    75  1
  112    75    76  1
  113    76    79  1
  114    76   157  1
  115    77    82  1
  116    77    78  1
  117    78    79  1
  118    79    80  1
  119    80    83  1
  120    80   161  1
  121    81    82  1
  122    82    83  1
  123    83    84  1
  124    84   165  1
  125    85    86  1
  126    85    90  1
  127    86    87  1
  128    87    88  1
  129    88    91  1
  130    88   169  1
  131    89    90  1
  132    89    94  1
  133    90    91  1
  134    91    92  1
  135    92    95  1
  136    92   173  1
  137    93    98  1
  138    93    94  1
  139    94    95  1
  140    95    96  1
  141    96    99  1
  142    96   177  1
  143    97   102  1
  144    97    98  1
  145    98    99  1
  146    99   100  1
  147   100   103  1
  148   100   181  1
  149   101   106  1
  150   101   102  1
  151   102   103  1
  152   103   104  1
  153   104   107  1
  154   104   185  1
  155   105   106  1
  156   105   110  1
  157   106   107  1
  158   107   108  1
  159   108   111  1
  160   108   189  1
  161   109   110  1
  162   109   114  1
  163   110   111  1
  164   111   112  1
  165   112   115  1
  166   112   193  1
  167   113   118  1
  168   113   114  1
  169   114   115  1
  170   115   116  1
  171   116   119  1
  172   116   197  1
  173   117   122  1
  174   117   118  1
  175   118   119  1
  176   119   120  1
  177   120   123  1
  178   120   201  1
  179   121   126  1
  180   121   122  1
  181   122   123  1
  182   123   124  1
  183   124   127  1
  184   124   205  1
  185   125   126  1
  186   125   130  1
  187   126   127  1
  188   127   128  1
  189   128   131  1
  190   128   209  1
  191   129   130  1
  192   129   134  1
  193   130   131  1
  194   131   132  1
  195   132   135  1
  196   132   213  1
  197   133   138  1
  198   133   134  1
  199   134   135  1
  200   135   136  1
  201   136   139  1
  202   136   217  1
  203   137   142  1
  204   137   138  1
  205   138   139  1
  206   139   140  1
  207   140   143  1
  208   140   221  1
  209   141   146  1
  210   141   142  1
  211   142   143  1
  212   143   144  1
  213   144   147  1
  214   144   225  1
  215   145   146  1
  216   145   150  1
  217   146   147  1
  218   147   148  1
  219   148   151  1
  220   148   229  1
  221   149   150  1
  222   149   154  1
  223   150   151  1
  224   151   152  1
  225   152   155  1
  226   152   233  1
  227   153   158  1
  228   153   154  1
  229   154   155  1
  230   155   156  1
  231   156   159  1
  232   156   237  1
  233   157   162  1
  234   157   158  1
  235   158   159  1
  236   159   160  1
  237   160   163  1
  238   160   241  1
  239   161   166  1
  240   161   162  1
  241   162   163  1
  242   163   164  1
  243   164   167  1
  244   164   245  1
  245   165   166  1
  246   166   167  1
  247   167   168  1
  248   168   249  1
  249   169   170  1
  250   169   174  1
  251   170   171  1
  252   171   172  1
  253   172   175  1
  254   172   253  1
  255   173   174  1
  256   173   178  1
  257   174   175  1
  258   175   176  1
  259   176   179  1
  260   176   257  1
  261   177   182  1
  262   177   178  1
  263   178   179  1
  264   179   180  1
  265   180   183  1
  266   180   261  1
  267   181   186  1
  268   181   182  1
  269   182   183  1
  270   183   184  1
  271   184   187  1
  272   184   265  1
  273   185   190  1
  274   185   186  1
  275   186   187  1
  276   187   188  1
  277   188   191  1
  278   188   269  1
  279   189   190  1
  280   189   194  1
  281   190   191  1
  282   191   192  1
  283   192   195  1
  284   192   273  1
  285   193   194  1
  286   193   198  1
  287   194   195  1
  288   195   196  1
  289   196   199  1
  290   196   277  1
  291   197   202  1
  292   197   198  1
  293   198   199  1
  294   199   200  1
  295   200   203  1
  296   200   281  1
  297   201   206  1
  298   201   202  1
  299   202   203  1
  300   203   204  1
  301   204   207  1
  302   204   285  1
  303   205   210  1
  304   205   206  1
  305   206   207  1
  306   207   208  1
  307   208   211  1
  308   208   289  1
  309   209   210  1
  310   209   214  1
  311   210   211  1
  312   211   212  1
  313   212   215  1
  314   212   293  1
  315   213   214  1
  316   213   218  1
  317   214   215  1
  318   215   216  1
  319   216   219  1
  320   216   297  1
  321   217   222  1
  322   217   218  1
  323   218   219  1
  324   219   220  1
  325   220   223  1
  326   220   301  1
  327   221   226  1
  328   221   222  1
  329   222   223  1
  330   223   224  1
  331   224   227  1
  332   224   305  1
  333   225   230  1
  334   225   226  1
  335   226   227  1
  336   227   228  1
  337   228   231  1
  338   228   309  1
  339   229   230  1
  340   229   234  1
  341   230   231  1
  342   231   232  1
  343   232   235  1
  344   232   313  1
  345   233   234  1
  346   233   238  1
  347   234   235  1
  348   235   236  1
  349   236   239  1
  350   236   317  1
  351   237   242  1
  352   237   238  1
  353   238   239  1
  354   239   240  1
  355   240   243  1
  356   240   321  1
  357   241   246  1
  358   241   242  1
  359   242   243  1
  360   243   244  1
  361   244   247  1
  362   244   325  1
  363   245   250  1
  364   245   246  1
  365   246   247  1
  366   247   248  1
  367   248   251  1
  368   248   329  1
  369   249   250  1
  370   250   251  1
  371   251   252  1
  372   252   333  1
  373   253   254  1
  374   253   258  1
  375   254   255  1
  376   255   256  1
  377   256   259  1
  378   256   337  1
  379   257   258  1
  380   257   262  1
  381   258   259  1
  382   259   260  1
  383   260   263  1
  384   260   341  1
  385   261   266  1
  386   261   262  1
  387   262   263  1
  388   263   264  1
  389   264   267  1
  390   264   345  1
  391   265   270  1
  392   265   266  1
  393   266   267  1
  394   267   268  1
  395   268   271  1
  396   268   349  1
  397   269   274  1
  398   269   270  1
  399   270   271  1
  400   271   272  1
  401   272   275  1
  402   272   353  1
  403   273   274  1
  404   273   278  1
  405   274   275  1
  406   275   276  1
  407   276   279  1
  408   276   357  1
  409   277   278  1
  410   277   282  1
  411   278   279  1
  412   279   280  1
  413   280   283  1
  414   280   361  1
  415   281   286  1
  416   281   282  1
  417   282   283  1
  418   283   284  1
  419   284   287  1
  420   284   365  1
  421   285   286  1
  422   285   290  1
  423   286   287  1
  424   287   288  1
  425   288   291  1
  426   288   369  1
  427   289   294  1
  428   289   290  1
  429   290   291  1
  430   291   292  1
  431   292   295  1
  432   292   373  1
  433   293   294  1
  434   293   298  1
  435   294   295  1
  436   295   296  1
  437   296   299  1
  438   296   377  1
  439   297   298  1
  440   297   302  1
  441   298   299  1
  442   299   300  1
  443   300   303  1
  444   300   381  1
  445   301   306  1
  446   301   302  1
  447   302   303  1
  448   303   304  1
  449   304   307  1
  450   304   385  1
  451   305   310  1
  452   305   306  1
  453   306   307  1
  454   307   308  1
  455   308   311  1
  456   308   389  1
  457   309   314  1
  458   309   310  1
  459   310   311  1
  460   311   312  1
  461   312   315  1
  462   312   393  1
  463   313   314  1
  464   313   318  1
  465   314   315  1
  466   315   316  1
  467   316   319  1
  468   316   397  1
  469   317   318  1
  470   317   322  1
  471   318   319  1
  472   319   320  1
  473   320   323  1
  474   320   401  1
  475   321   326  1
  476   321   322  1
  477   322   323  1
  478   323   324  1
  479   324   327  1
  480   324   405  1
  481   325   330  1
  482   325   326  1
  483   326   327  1
  484   327   328  1
  485   328   331  1
  486   328   409  1
  487   329   334  1
  488   329   330  1
  489   330   331  1
  490   331   332  1
  491   332   335  1
  492   332   413  1
  493   333   334  1
  494   334   335  1
  495   335   336  1
  496   336   417  1
  497   337   338  1
  498   337   342  1
  499   338   339  1
  500   339   340  1
  501   340   343  1
  502   340   421  1
  503   341   342  1
  504   341   346  1
  505   342   343  1
  506   343   344  1
  507   344   347  1
  508   344   425  1
  509   345   350  1
  510   345   346  1
  511   346   347  1
  512   347   348  1
  513   348   351  1
  514   348   429  1
  515   349   354  1
  516   349   350  1
  517   350   351  1
  518   351   352  1
  519   352   355  1
  520   352   433  1
  521   353   358  1
  522   353   354  1
  523   354   355  1
  524   355   356  1
  525   356   359  1
  526   356   437  1
  527   357   358  1
  528   357   362  1
  529   358   359  1
  530   359   360  1
  531   360   363  1
  532   360   441  1
  533   361   362  1
  534   361   366  1
  535   362   363  1
  536   363   364  1
  537   364   367  1
  538   364   445  1
  539   365   370  1
  540   365   366  1
  541   366   367  1
  542   367   368  1
  543   368   371  1
  544   368   449  1
  545   369   374  1
  546   369   370  1
  547   370   371  1
  548   371   372  1
  549   372   375  1
  550   372   453  1
  551   373   378  1
  552   373   374  1
  553   374   375  1
  554   375   376  1
  555   376   379  1
  556   376   457  1
  557   377   378  1
  558   377   382  1
  559   378   379  1
  560   379   380  1
  561   380   383  1
  562   380   461  1
  563   381   382  1
  564   381   386  1
  565   382   383  1
  566   383   384  1
  567   384   387  1
  568   384   465  1
  569   385   390  1
  570   385   386  1
  571   386   387  1
  572   387   388  1
  573   388   391  1
  574   388   469  1
  575   389   394  1
  576   389   390  1
  577   390   391  1
  578   391   392  1
  579   392   395  1
  580   392   473  1
  581   393   398  1
  582   393   394  1
  583   394   395  1
  584   395   396  1
  585   396   399  1
  586   396   477  1
  587   397   398  1
  588   397   402  1
  589   398   399  1
  590   399   400  1
  591   400   403  1
  592   400   481  1
  593   401   402  1
  594   401   406  1
  595   402   403  1
  596   403   404  1
  597   404   407  1
  598   404   485  1
  599   405   410  1
  600   405   406  1
  601   406   407  1
  602   407   408  1
  603   408   411  1
  604   408   489  1
  605   409   414  1
  606   409   410  1
  607   410   411  1
  608   411   412  1
  609   412   415  1
  610   412   493  1
  611   413   418  1
  612   413   414  1
  613   414   415  1
  614   415   416  1
  615   416   419  1
  616   416   497  1
  617   417   418  1
  618   418   419  1
  619   419   420  1
  620   420   501  1
  621   421   422  1
  622   421   426  1
  623   422   423  1
  624   423   424  1
  625   424   427  1
  626   424   505  1
  627   425   426  1
  628   425   430  1
  629   426   427  1
  630   427   428  1
  631   428   431  1
  632   428   509  1
  633   429   434  1
  634   429   430  1
  635   430   431  1
  636   431   432  1
  637   432   435  1
  638   432   513  1
  639   433   438  1
  640   433   434  1
  641   434   435  1
  642   435   436  1
  643   436   439  1
  644   436   517  1
  645   437   442  1
  646   437   438  1
  647   438   439  1
  648   439   440  1
  649   440   443  1
  650   440   521  1
  651   441   442  1
  652   441   446  1
  653   442   443  1
  654   443   444  1
  655   444   447  1
  656   444   525  1
  657   445   446  1
  658   445   450  1
  659   446   447  1
  660   447   448  1
  661   448   451  1
  662   448   529  1
  663   449   454  1
  664   449   450  1
  665   450   451  1
  666   451   452  1
  667   452   455  1
  668   452   533  1
  669   453   458  1
  670   453   454  1
  671   454   455  1
  672   455   456  1
  673   456   459  1
  674   456   537  1
  675   457   462  1
  676   457   458  1
  677   458   459  1
  678   459   460  1
  679   460   463  1
  680   460   541  1
  681   461   462  1
  682   461   466  1
  683   462   463  1
  684   463   464  1
  685   464   467  1
  686   464   545  1
  687   465   466  1
  688   465   470  1
  689   466   467  1
  690   467   468  1
  691   468   471  1
  692   468   549  1
  693   469   474  1
  694   469   470  1
  695   470   471  1
  696   471   472  1
  697   472   475  1
  698   472   553  1
  699   473   478  1
  700   473   474  1
  701   474   475  1
  702   475   476  1
  703   476   479  1
  704   476   557  1
  705   477   482  1
  706   477   478  1
  707   478   479  1
  708   479   480  1
  709   480   483  1
  710   480   561  1
  711   481   482  1
  712   481   486  1
  713   482   483  1
  714   483   484  1
  715   484   487  1
  716   484   565  1
  717   485   486  1
  718   485   490  1
  719   486   487  1
  720   487   488  1
  721   488   491  1
  722   488   569  1
  723   489   494  1
  724   489   490  1
  725   490   491  1
  726   491   492  1
  727   492   495  1
  728   492   573  1
  729   493   494  1
  730   493   498  1
  731   494   495  1
  732   495   496  1
  733   496   499  1
  734   496   577  1
  735   497   502  1
  736   497   498  1
  737   498   499  1
  738   499   500  1
  739   500   503  1
  740   500   581  1
  741   501   502  1
  742   502   503  1
  743   503   504  1
  744   504   585  1
  745   505   506  1
  746   505   510  1
  747   506   507  1
  748   507   508  1
  749   508   511  1
  750   508   589  1
  751   509   510  1
  752   509   514  1
  753   510   511  1
  754   511   512  1
  755   512   515  1
  756   512   593  1
  757   513   518  1
  758   513   514  1
  759   514   515  1
  760   515   516  1
  761   516   519  1
  762   516   597  1
  763   517   518  1
  764   517   522  1
  765   518   519  1
  766   519   520  1
  767   520   523  1
  768   520   601  1
  769   521   526  1
  770   521   522  1
  771   522   523  1
  772   523   524  1
  773   524   527  1
  774   524   605  1
  775   525   526  1
  776   525   530  1
  777   526   527  1
  778   527   528  1
  779   528   531  1
  780   528   609  1
  781   529   530  1
  782   529   534  1
  783   530   531  1
  784   531   532  1
  785   532   535  1
  786   532   613  1
  787   533   538  1
  788   533   534  1
  789   534   535  1
  790   535   536  1
  791   536   539  1
  792   536   617  1
  793   537   542  1
  794   537   538  1
  795   538   539  1
  796   539   540  1
  797   540   543  1
  798   540   621  1
  799   541   546  1
  800   541   542  1
  801   542   543  1
  802   543   544  1
  803   544   547  1
  804   544   625  1
  805   545   546  1
  806   545   550  1
  807   546   547  1
  808   547   548  1
  809   548   551  1
  810   548   629  1
  811   549   550  1
  812   549   554  1
  813   550   551  1
  814   551   552  1
  815   552   555  1
  816   552   633  1
  817   553   558  1
  818   553   554  1
  819   554   555  1
  820   555   556  1
  821   556   559  1
  822   556   637  1
  823   557   562  1
  824   557   558  1
  825   558   559  1
  826   559   560  1
  827   560   563  1
  828   560   641  1
  829   561   566  1
  830   561   562  1
  831   562   563  1
  832   563   564  1
  833   564   567  1
  834   564   645  1
  835   565   566  1
  836   565   570  1
  837   566   567  1
  838   567   568  1
  839   568   571  1
  840   568   649  1
  841   569   570  1
  842   569   574  1
  843   570   571  1
  844   571   572  1
  845   572   575  1
  846   572   653  1
  847   573   578  1
  848   573   574  1
  849   574   575  1
  850   575   576  1
  851   576   579  1
  852   576   657  1
  853   577   582  1
  854   577   578  1
  855   578   579  1
  856   579   580  1
  857   580   583  1
  858   580   661  1
  859   581   586  1
  860   581   582  1
  861   582   583  1
  862   583   584  1
  863   584   587  1
  864   584   665  1
  865   585   586  1
  866   586   587  1
  867   587   588  1
  868   588   669  1
  869   589   590  1
  870   589   594  1
  871   590   591  1
  872   591   592  1
  873   592   595  1
  874   592   673  1
  875   593   594  1
  876   593   598  1
  877   594   595  1
  878   595   596  1
  879   596   599  1
  880   596   677  1
  881   597   602  1
  882   597   598  1
  883   598   599  1
  884   599   600  1
  885   600   603  1
  886   600   681  1
  887   601   606  1
  888   601   602  1
  889   602   603  1
  890   603   604  1
  891   604   607  1
  892   604   685  1
  893   605   610  1
  894   605   606  1
  895   606   607  1
  896   607   608  1
  897   608   611  1
  898   608   689  1
  899   609   610  1
  900   609   614  1
  901   610   611  1
  902   611   612  1
  903   612   615  1
  904   612   693  1
  905   613   614  1
  906   613   618  1
  907   614   615  1
  908   615   616  1
  909   616   619  1
  910   616   697  1
  911   617   622  1
  912   617   618  1
  913   618   619  1
  914   619   620  1
  915   620   623  1
  916   620   701  1
  917   621   626  1
  918   621   622  1
  919   622   623  1
  920   623   624  1
  921   624   627  1
  922   624   705  1
  923   625   630  1
  924   625   626  1
  925   626   627  1
  926   627   628  1
  927   628   631  1
  928   628   709  1
  929   629   630  1
  930   629   634  1
  931   630   631  1
  932   631   632  1
  933   632   635  1
  934   632   713  1
  935   633   634  1
  936   633   638  1
  937   634   635  1
  938   635   636  1
  939   636   639  1
  940   636   717  1
  941   637   642  1
  942   637   638  1
  943   638   639  1
  944   639   640  1
  945   640   643  1
  946   640   721  1
  947   641   646  1
  948   641   642  1
  949   642   643  1
  950   643   644  1
  951   644   647  1
  952   644   725  1
  953   645   650  1
  954   645   646  1
  955   646   647  1
  956   647   648  1
  957   648   651  1
  958   648   729  1
  959   649   650  1
  960   649   654  1
  961   650   651  1
  962   651   652  1
  963   652   655  1
  964   652   733  1
  965   653   654  1
  966   653   658  1
  967   654   655  1
  968   655   656  1
  969   656   659  1
  970   656   737  1
  971   657   662  1
  972   657   658  1
  973   658   659  1
  974   659   660  1
  975   660   663  1
  976   660   741  1
  977   661   666  1
  978   661   662  1
  979   662   663  1
  980   663   664  1
  981   664   667  1
  982   664   745  1
  983   665   670  1
  984   665   666  1
  985   666   667  1
  986   667   668  1
  987   668   671  1
  988   668   749  1
  989   669   670  1
  990   670   671  1
  991   671   672  1
  992   672   753  1
  993   673   674  1
  994   673   678  1
  995   674   675  1
  996   675   676  1
  997   676   757  1
  998   676   679  1
  999   677   678  1
 1000   677   682  1
 1001   678   679  1
 1002   679   680  1
 1003   680   761  1
 1004   680   683  1
 1005   681   682  1
 1006   681   686  1
 1007   682   683  1
 1008   683   684  1
 1009   684   687  1
 1010   684   765  1
 1011   685   686  1
 1012   685   690  1
 1013   686   687  1
 1014   687   688  1
 1015   688   691  1
 1016   688   769  1
 1017   689   690  1
 1018   689   694  1
 1019   690   691  1
 1020   691   692  1
 1021   692   773  1
 1022   692   695  1
 1023   693   694  1
 1024   693   698  1
 1025   694   695  1
 1026   695   696  1
 1027   696   777  1
 1028   696   699  1
 1029   697   698  1
 1030   697   702  1
 1031   698   699  1
 1032   699   700  1
 1033   700   781  1
 1034   700   703  1
 1035   701   706  1
 1036   701   702  1
 1037   702   703  1
 1038   703   704  1
 1039   704   785  1
 1040   704   707  1
 1041   705   710  1
 1042   705   706  1
 1043   706   707  1
 1044   707   708  1
 1045   708   789  1
 1046   708   711  1
 1047   709   714  1
 1048   709   710  1
 1049   710   711  1
 1050   711   712  1
 1051   712   793  1
 1052   712   715  1
 1053   713   714  1
 1054   713   718  1
 1055   714   715  1
 1056   715   716  1
 1057   716   797  1
 1058   716   719  1
 1059   717   718  1
 1060   717   722  1
 1061   718   719  1
 1062   719   720  1
 1063   720   801  1
 1064   720   723  1
 1065   721   726  1
 1066   721   722  1
 1067   722   723  1
 1068   723   724  1
 1069   724   727  1
 1070   724   805  1
 1071   725   726  1
 1072   725   730  1
 1073   726   727  1
 1074   727   728  1
 1075   728   731  1
 1076   728   809  1
 1077   729   730  1
 1078   729   734  1
 1079   730   731  1
 1080   731   732  1
 1081   732   813  1
 1082   732   735  1
 1083   733   734  1
 1084   733   738  1
 1085   734   735  1
 1086   735   736  1
 1087   736   817  1
 1088   736   739  1
 1089   737   738  1
 1090   737   742  1
 1091   738   739  1
 1092   739   740  1
 1093   740   821  1
 1094   740   743  1
 1095   741   742  1
 1096   741   746  1
 1097   742   743  1
 1098   743   744  1
 1099   744   747  1
 1100   744   825  1
 1101   745   746  1
 1102   745   750  1
 1103   746   747  1
 1104   747   748  1
 1105   748   751  1
 1106   748   829  1
 1107   749   750  1
 1108   749   754  1
 1109   750   751  1
 1110   751   752  1
 1111   752   833  1
 1112   752   755  1
 1113   753   754  1
 1114   754   755  1
 1115   755   756  1
 1116   756   837  1
 1117   757   758  1
 1118   757   762  1
 1119   758   759  1
 1120   759   760  1
 1121   760   841  1
 1122   760   763  1
 1123   761   762  1
 1124   761   766  1
 1125   762   763  1
 1126   763   764  1
 1127   764   845  1
 1128   764   767  1
 1129   765   766  1
 1130   765   770  1
 1131   766   767  1
 1132   767   768  1
 1133   768   771  1
 1134   768   849  1
 1135   769   770  1
 1136   769   774  1
 1137   770   771  1
 1138   771   772  1
 1139   772   775  1
 1140   772   853  1
 1141   773   774  1
 1142   773   778  1
 1143   774   775  1
 1144   775   776  1
 1145   776   857  1
 1146   776   779  1
 1147   777   778  1
 1148   777   782  1
 1149   778   779  1
 1150   779   780  1
 1151   780   861  1
 1152   780   783  1
 1153   781   782  1
 1154   781   786  1
 1155   782   783  1
 1156   783   784  1
 1157   784   865  1
 1158   784   787  1
 1159   785   790  1
 1160   785   786  1
 1161   786   787  1
 1162   787   788  1
 1163   788   869  1
 1164   788   791  1
 1165   789   794  1
 1166   789   790  1
 1167   790   791  1
 1168   791   792  1
 1169   792   873  1
 1170   792   795  1
 1171   793   798  1
 1172   793   794  1
 1173   794   795  1
 1174   795   796  1
 1175   796   877  1
 1176   796   799  1
 1177   797   798  1
 1178   797   802  1
 1179   798   799  1
 1180   799   800  1
 1181   800   881  1
 1182   800   803  1
 1183   801   802  1
 1184   801   806  1
 1185   802   803  1
 1186   803   804  1
 1187   804   885  1
 1188   804   807  1
 1189   805   806  1
 1190   805   810  1
 1191   806   807  1
 1192   807   808  1
 1193   808   811  1
 1194   808   889  1
 1195   809   810  1
 1196   809   814  1
 1197   810   811  1
 1198   811   812  1
 1199   812   815  1
 1200   812   893  1
 1201   813   814  1
 1202   813   818  1
 1203   814   815  1
 1204   815   816  1
 1205   816   897  1
 1206   816   819  1
 1207   817   818  1
 1208   817   822  1
 1209   818   819  1
 1210   819   820  1
 1211   820   901  1
 1212   820   823  1
 1213   821   822  1
 1214   821   826  1
 1215   822   823  1
 1216   823   824  1
 1217   824   905  1
 1218   824   827  1
 1219   825   826  1
 1220   825   830  1
 1221   826   827  1
 1222   827   828  1
 1223   828   909  1
 1224   828   831  1
 1225   829   834  1
 1226   829   830  1
 1227   830   831  1
 1228   831   832  1
 1229   832   913  1
 1230   832   835  1
 1231   833   838  1
 1232   833   834  1
 1233   834   835  1
 1234   835   836  1
 1235   836   917  1
 1236   836   839  1
 1237   837   838  1
 1238   838   839  1
 1239   839   840  1
 1240   840   921  1
 1241   841   842  1
 1242   841   846  1
 1243   842   843  1
 1244   843   844  1
 1245   844   925  1
 1246   844   847  1
 1247   845   846  1
 1248   845   850  1
 1249   846   847  1
 1250   847   848  1
 1251   848   929  1
 1252   848   851  1
 1253   849   850  1
 1254   849   854  1
 1255   850   851  1
 1256   851   852  1
 1257   852   933  1
 1258   852   855  1
 1259   853   858  1
 1260   853   854  1
 1261   854   855  1
 1262   855   856  1
 1263   856   937  1
 1264   856   859  1
 1265   857   862  1
 1266   857   858  1
 1267   858   859  1
 1268   859   860  1
 1269   860   941  1
 1270   860   863  1
 1271   861   862  1
 1272   861   866  1
 1273   862   863  1
 1274   863   864  1
 1275   864   945  1
 1276   864   867  1
 1277   865   866  1
 1278   865   870  1
 1279   866   867  1
 1280   867   868  1
 1281   868   949  1
 1282   868   871  1
 1283   869   874  1
 1284   869   870  1
 1285   870   871  1
 1286   871   872  1
 1287   872   953  1
 1288   872   875  1
 1289   873   878  1
 1290   873   874  1
 1291   874   875  1
 1292   875   876  1
 1293   876   879  1
 1294   876   957  1
 1295   877   882  1
 1296   877   878  1
 1297   878   879  1
 1298   879   880  1
 1299   880   961  1
 1300   880   883  1
 1301   881   882  1
 1302   881   886  1
 1303   882   883  1
 1304   883   884  1
 1305   884   965  1
 1306   884   887  1
 1307   885   886  1
 1308   885   890  1
 1309   886   887  1
 1310   887   888  1
 1311   888   969  1
 1312   888   891  1
 1313   889   890  1
 1314   889   894  1
 1315   890   891  1
 1316   891   892  1
 1317   892   895  1
 1318   892   973  1
 1319   893   894  1
 1320   893   898  1
 1321   894   895  1
 1322   895   896  1
 1323   896   899  1
 1324   896   977  1
 1325   897   898  1
 1326   897   902  1
 1327   898   899  1
 1328   899   900  1
 1329   900   981  1
 1330   900   903  1
 1331   901   902  1
 1332   901   906  1
 1333   902   903  1
 1334   903   904  1
 1335   904   985  1
 1336   904   907  1
 1337   905   906  1
 1338   905   910  1
 1339   906   907  1
 1340   907   908  1
 1341   908   989  1
 1342   908   911  1
 1343   909   914  1
 1344   909   910  1
 1345   910   911  1
 1346   911   912  1
 1347   912   993  1
 1348   912   915  1
 1349   913   918  1
 1350   913   914  1
 1351   914   915  1
 1352   915   916  1
 1353   916   997  1
 1354   916   919  1
 1355   917   922  1
 1356   917   918  1
 1357   918   919  1
 1358   919   920  1
 1359   920  1001  1
 1360   920   923  1
 1361   921   922  1
 1362   922   923  1
 1363   923   924  1
 1364   924  1005  1
 1365   925   926  1
 1366   925   930  1
 1367   926   927  1
 1368   927   928  1
 1369   928   931  1
 1370   929   930  1
 1371   929   934  1
 1372   930   931  1
 1373   931   932  1
 1374   932   935  1
 1375   933   938  1
 1376   933   934  1
 1377   934   935  1
 1378   935   936  1
 1379   936   939  1
 1380   937   942  1
 1381   937   938  1
 1382   938   939  1
 1383   939   940  1
 1384   940   943  1
 1385   941   946  1
 1386   941   942  1
 1387   942   943  1
 1388   943   944  1
 1389   944   947  1
 1390   945   946  1
 1391   945   950  1
 1392   946   947  1
 1393   947   948  1
 1394   948   951  1
 1395   949   950  1
 1396   949   954  1
 1397   950   951  1
 1398   951   952  1
 1399   952   955  1
 1400   953   958  1
 1401   953   954  1
 1402   954   955  1
 1403   955   956  1
 1404   956   959  1
 1405   957   958  1
 1406   957   962  1
 1407   958   959  1
 1408   959   960  1
 1409   960   963  1
 1410   961   962  1
 1411   961   966  1
 1412   962   963  1
 1413   963   964  1
 1414   964   967  1
 1415   965   966  1
 1416   965   970  1
 1417   966   967  1
 1418   967   968  1
 1419   968   971  1
 1420   969   970  1
 1421   969   974  1
 1422   970   971  1
 1423   971   972  1
 1424   972   975  1
 1425   973   974  1
 1426   973   978  1
 1427   974   975  1
 1428   975   976  1
 1429   976   979  1
 1430   977   978  1
 1431   977   982  1
 1432   978   979  1
 1433   979   980  1
 1434   980   983  1
 1435   981   982  1
 1436   981   986  1
 1437   982   983  1
 1438   983   984  1
 1439   984   987  1
 1440   985   986  1
 1441   985   990  1
 1442   986   987  1
 1443   987   988  1
 1444   988   991  1
 1445   989   990  1
 1446   989   994  1
 1447   990   991  1
 1448   991   992  1
 1449   992   995  1
 1450   993   998  1
 1451   993   994  1
 1452   994   995  1
 1453   995   996  1
 1454   996   999  1
 1455   997  1002  1
 1456   997   998  1
 1457   998   999  1
 1458   999  1000  1
 1459  1000  1003  1
 1460  1001  1006  1
 1461  1001  1002  1
 1462  1002  1003  1
 1463  1003  1004  1
 1464  1004  1007  1
 1465  1005  1006  1
 1466  1006  1007  1
 1467  1007  1008  1
 1468  1009  1010  1
 1469  1009  1014  1
 1470  1010  1011  1
 1471  1011  1012  1
 1472  1012  1093  1
 1473  1012  1015  1
 1474  1013  1014  1
 1475  1013  1018  1
 1476  1014  1015  1
 1477  1015  1016  1
 1478  1016  1097  1
 1479  1016  1019  1
 1480  1017  1022  1
 1481  1017  1018  1
 1482  1018  1019  1
 1483  1019  1020  1
 1484  1020  1101  1
 1485  1020  1023  1
 1486  1021  1026  1
 1487  1021  1022  1
 1488  1022  1023  1
 1489  1023  1024  1
 1490  1024  1027  1
 1491  1024  1105  1
 1492  1025  1030  1
 1493  1025  1026  1
 1494  1026  1027  1
 1495  1027  1028  1
 1496  1028  1109  1
 1497  1028  1031  1
 1498  1029  1030  1
 1499  1029  1034  1
 1500  1030  1031  1
 1501  1031  1032  1
 1502  1032  1113  1
 1503  1032  1035  1
 1504  1033  1034  1
 1505  1033  1038  1
 1506  1034  1035  1
 1507  1035  1036  1
 1508  1036  1117  1
 1509  1036  1039  1
 1510  1037  1038  1
 1511  1037  1042  1
 1512  1038  1039  1
 1513  1039  1040  1
 1514  1040  1043  1
 1515  1040  1121  1
 1516  1041  1042  1
 1517  1041  1046  1
 1518  1042  1043  1
 1519  1043  1044  1
 1520  1044  1047  1
 1521  1044  1125  1
 1522  1045  1046  1
 1523  1045  1050  1
 1524  1046  1047  1
 1525  1047  1048  1
 1526  1048  1129  1
 1527  1048  1051  1
 1528  1049  1050  1
 1529  1049  1054  1
 1530  1050  1051  1
 1531  1051  1052  1
 1532  1052  1133  1
 1533  1052  1055  1
 1534  1053  1054  1
 1535  1053  1058  1
 1536  1054  1055  1
 1537  1055  1056  1
 1538  1056  1137  1
 1539  1056  1059  1
 1540  1057  1062  1
 1541  1057  1058  1
 1542  1058  1059  1
 1543  1059  1060  1
 1544  1060  1141  1
 1545  1060  1063  1
 1546  1061  1066  1
 1547  1061  1062  1
 1548  1062  1063  1
 1549  1063  1064  1
 1550  1064  1145  1
 1551  1064  1067  1
 1552  1065  1070  1
 1553  1065  1066  1
 1554  1066  1067  1
 1555  1067  1068  1
 1556  1068  1149  1
 1557  1068  1071  1
 1558  1069  1070  1
 1559  1069  1074  1
 1560  1070  1071  1
 1561  1071  1072  1
 1562  1072  1153  1
 1563  1072  1075  1
 1564  1073  1074  1
 1565  1073  1078  1
 1566  1074  1075  1
 1567  1075  1076  1
 1568  1076  1157  1
 1569  1076  1079  1
 1570  1077  1082  1
 1571  1077  1078  1
 1572  1078  1079  1
 1573  1079  1080  1
 1574  1080  1083  1
 1575  1080  1161  1
 1576  1081  1082  1
 1577  1081  1086  1
 1578  1082  1083  1
 1579  1083  1084  1
 1580  1084  1087  1
 1581  1084  1165  1
 1582  1085  1086  1
 1583  1085  1090  1
 1584  1086  1087  1
 1585  1087  1088  1
 1586  1088  1169  1
 1587  1088  1091  1
 1588  1089  1090  1
 1589  1090  1091  1
 1590  1091  1092  1
 1591  1092  1173  1
 1592  1093  1094  1
 1593  1093  1098  1
 1594  1094  1095  1
 1595  1095  1096  1
 1596  1096  1177  1
 1597  1096  1099  1
 1598  1097  1098  1
 1599  1097  1102  1
 1600  1098  1099  1
 1601  1099  1100  1
 1602  1100  1181  1
 1603  1100  1103  1
 1604  1101  1106  1
 1605  1101  1102  1
 1606  1102  1103  1
 1607  1103  1104  1
 1608  1104  1107  1
 1609  1104  1185  1
 1610  1105  1106  1
 1611  1105  1110  1
 1612  1106  1107  1
 1613  1107  1108  1
 1614  1108  1111  1
 1615  1108  1189  1
 1616  1109  1110  1
 1617  1109  1114  1
 1618  1110  1111  1
 1619  1111  1112  1
 1620  1112  1193  1
 1621  1112  1115  1
 1622  1113  1114  1
 1623  1113  1118  1
 1624  1114  1115  1
 1625  1115  1116  1
 1626  1116  1197  1
 1627  1116  1119  1
 1628  1117  1118  1
 1629  1117  1122  1
 1630  1118  1119  1
 1631  1119  1120  1
 1632  1120  1201  1
 1633  1120  1123  1
 1634  1121  1122  1
 1635  1121  1126  1
 1636  1122  1123  1
 1637  1123  1124  1
 1638  1124  1127  1
 1639  1124  1205  1
 1640  1125  1126  1
 1641  1125  1130  1
 1642  1126  1127  1
 1643  1127  1128  1
 1644  1128  1131  1
 1645  1128  1209  1
 1646  1129  1130  1
 1647  1129  1134  1
 1648  1130  1131  1
 1649  1131  1132  1
 1650  1132  1213  1
 1651  1132  1135  1
 1652  1133  1134  1
 1653  1133  1138  1
 1654  1134  1135  1
 1655  1135  1136  1
 1656  1136  1217  1
 1657  1136  1139  1
 1658  1137  1138  1
 1659  1137  1142  1
 1660  1138  1139  1
 1661  1139  1140  1
 1662  1140  1221  1
 1663  1140  1143  1
 1664  1141  1146  1
 1665  1141  1142  1
 1666  1142  1143  1
 1667  1143  1144  1
 1668  1144  1225  1
 1669  1144  1147  1
 1670  1145  1150  1
 1671  1145  1146  1
 1672  1146  1147  1
 1673  1147  1148  1
 1674  1148  1229  1
 1675  1148  1151  1
 1676  1149  1154  1
 1677  1149  1150  1
 1678  1150  1151  1
 1679  1151  1152  1
 1680  1152  1233  1
 1681  1152  1155  1
 1682  1153  1154  1
 1683  1153  1158  1
 1684  1154  1155  1
 1685  1155  1156  1
 1686  1156  1237  1
 1687  1156  1159  1
 1688  1157  1158  1
 1689  1157  1162  1
 1690  1158  1159  1
 1691  1159  1160  1
 1692  1160  1241  1
 1693  1160  1163  1
 1694  1161  1162  1
 1695  1161  1166  1
 1696  1162  1163  1
 1697  1163  1164  1
 1698  1164  1167  1
 1699  1164  1245  1
 1700  1165  1166  1
 1701  1165  1170  1
 1702  1166  1167  1
 1703  1167  1168  1
 1704  1168  1171  1
 1705  1168  1249  1
 1706  1169  1170  1
 1707  1169  1174  1
 1708  1170  1171  1
 1709  1171  1172  1
 1710  1172  1253  1
 1711  1172  1175  1
 1712  1173  1174  1
 1713  1174  1175  1
 1714  1175  1176  1
 1715  1176  1257  1
 1716  1177  1178  1
 1717  1177  1182  1
 1718  1178  1179  1
 1719  1179  1180  1
 1720  1180  1261  1
 1721  1180  1183  1
 1722  1181  1182  1
 1723  1181  1186  1
 1724  1182  1183  1
 1725  1183  1184  1
 1726  1184  1265  1
 1727  1184  1187  1
 1728  1185  1186  1
 1729  1185  1190  1
 1730  1186  1187  1
 1731  1187  1188  1
 1732  1188  1191  1
 1733  1188  1269  1
 1734  1189  1190  1
 1735  1189  1194  1
 1736  1190  1191  1
 1737  1191  1192  1
 1738  1192  1195  1
 1739  1192  1273  1
 1740  1193  1194  1
 1741  1193  1198  1
 1742  1194  1195  1
 1743  1195  1196  1
 1744  1196  1277  1
 1745  1196  1199  1
 1746  1197  1198  1
 1747  1197  1202  1
 1748  1198  1199  1
 1749  1199  1200  1
 1750  1200  1281  1
 1751  1200  1203  1
 1752  1201  1202  1
 1753  1201  1206  1
 1754  1202  1203  1
 1755  1203  1204  1
 1756  1204  1285  1
 1757  1204  1207  1
 1758  1205  1206  1
 1759  1205  1210  1
 1760  1206  1207  1
 1761  1207  1208  1
 1762  1208  1289  1
 1763  1208  1211  1
 1764  1209  1214  1
 1765  1209  1210  1
 1766  1210  1211  1
 1767  1211  1212  1
 1768  1212  1293  1
 1769  1212  1215  1
 1770  1213  1218  1
 1771  1213  1214  1
 1772  1214  1215  1
 1773  1215  1216  1
 1774  1216  1297  1
 1775  1216  1219  1
 1776  1217  1218  1
 1777  1217  1222  1
 1778  1218  1219  1
 1779  1219  1220  1
 1780  1220  1301  1
 1781  1220  1223  1
 1782  1221  1222  1
 1783  1221  1226  1
 1784  1222  1223  1
 1785  1223  1224  1
 1786  1224  1305  1
 1787  1224  1227  1
 1788  1225  1230  1
 1789  1225  1226  1
 1790  1226  1227  1
 1791  1227  1228  1
 1792  1228  1309  1
 1793  1228  1231  1
 1794  1229  1234  1
 1795  1229  1230  1
 1796  1230  1231  1
 1797  1231  1232  1
 1798  1232  1235  1
 1799  1232  1313  1
 1800  1233  1238  1
 1801  1233  1234  1
 1802  1234  1235  1
 1803  1235  1236  1
 1804  1236  1317  1
 1805  1236  1239  1
 1806  1237  1238  1
 1807  1237  1242  1
 1808  1238  1239  1
 1809  1239  1240  1
 1810  1240  1321  1
 1811  1240  1243  1
 1812  1241  1242  1
 1813  1241  1246  1
 1814  1242  1243  1
 1815  1243  1244  1
 1816  1244  1325  1
 1817  1244  1247  1
 1818  1245  1246  1
 1819  1245  1250  1
 1820  1246  1247  1
 1821  1247  1248  1
 1822  1248  1251  1
 1823  1248  1329  1
 1824  1249  1250  1
 1825  1249  1254  1
 1826  1250  1251  1
 1827  1251  1252  1
 1828  1252  1255  1
 1829  1252  1333  1
 1830  1253  1254  1
 1831  1253  1258  1
 1832  1254  1255  1
 1833  1255  1256  1
 1834  1256  1337  1
 1835  1256  1259  1
 1836  1257  1258  1
 1837  1258  1259  1
 1838  1259  1260  1
 1839  1260  1341  1
 1840  1261  1262  1
 1841  1261  1266  1
 1842  1262  1263  1
 1843  1263  1264  1
 1844  1264  1345  1
 1845  1264  1267  1
 1846  1265  1266  1
 1847  1265  1270  1
 1848  1266  1267  1
 1849  1267  1268  1
 1850  1268  1349  1
 1851  1268  1271  1
 1852  1269  1270  1
 1853  1269  1274  1
 1854  1270  1271  1
 1855  1271  1272  1
 1856  1272  1275  1
 1857  1272  1353  1
 1858  1273  1274  1
 1859  1273  1278  1
 1860  1274  1275  1
 1861  1275  1276  1
 1862  1276  1279  1
 1863  1276  1357  1
 1864  1277  1278  1
 1865  1277  1282  1
 1866  1278  1279  1
 1867  1279  1280  1
 1868  1280  1361  1
 1869  1280  1283  1
 1870  1281  1282  1
 1871  1281  1286  1
 1872  1282  1283  1
 1873  1283  1284  1
 1874  1284  1365  1
 1875  1284  1287  1
 1876  1285  1286  1
 1877  1285  1290  1
 1878  1286  1287  1
 1879  1287  1288  1
 1880  1288  1369  1
 1881  1288  1291  1
 1882  1289  1294  1
 1883  1289  1290  1
 1884  1290  1291  1
 1885  1291  1292  1
 1886  1292  1373  1
 1887  1292  1295  1
 1888  1293  1298  1
 1889  1293  1294  1
 1890  1294  1295  1
 1891  1295  1296  1
 1892  1296  1377  1
 1893  1296  1299  1
 1894  1297  1302  1
 1895  1297  1298  1
 1896  1298  1299  1
 1897  1299  1300  1
 1898  1300  1381  1
 1899  1300  1303  1
 1900  1301  1302  1
 1901  1301  1306  1
 1902  1302  1303  1
 1903  1303  1304  1
 1904  1304  1385  1
 1905  1304  1307  1
 1906  1305  1306  1
 1907  1305  1310  1
 1908  1306  1307  1
 1909  1307  1308  1
 1910  1308  1389  1
 1911  1308  1311  1
 1912  1309  1314  1
 1913  1309  1310  1
 1914  1310  1311  1
 1915  1311  1312  1
 1916  1312  1315  1
 1917  1312  1393  1
 1918  1313  1314  1
 1919  1313  1318  1
 1920  1314  1315  1
 1921  1315  1316  1
 1922  1316  1319  1
 1923  1316  1397  1
 1924  1317  1318  1
 1925  1317  1322  1
 1926  1318  1319  1
 1927  1319  1320  1
 1928  1320  1401  1
 1929  1320  1323  1
 1930  1321  1322  1
 1931  1321  1326  1
 1932  1322  1323  1
 1933  1323  1324  1
 1934  1324  1405  1
 1935  1324  1327  1
 1936  1325  1326  1
 1937  1325  1330  1
 1938  1326  1327  1
 1939  1327  1328  1
 1940  1328  1409  1
 1941  1328  1331  1
 1942  1329  1330  1
 1943  1329  1334  1
 1944  1330  1331  1
 1945  1331  1332  1
 1946  1332  1335  1
 1947  1332  1413  1
 1948  1333  1334  1
 1949  1333  1338  1
 1950  1334  1335  1
 1951  1335  1336  1
 1952  1336  1339  1
 1953  1336  1417  1
 1954  1337  1338  1
 1955  1337  1342  1
 1956  1338  1339  1
 1957  1339  1340  1
 1958  1340  1421  1
 1959  1340  1343  1
 1960  1341  1342  1
 1961  1342  1343  1
 1962  1343  1344  1
 1963  1344  1425  1
 1964  1345  1346  1
 1965  1345  1350  1
 1966  1346  1347  1
 1967  1347  1348  1
 1968  1348  1351  1
 1969  1348  1429  1
 1970  1349  1350  1
 1971  1349  1354  1
 1972  1350  1351  1
 1973  1351  1352  1
 1974  1352  1355  1
 1975  1352  1433  1
 1976  1353  1358  1
 1977  1353  1354  1
 1978  1354  1355  1
 1979  1355  1356  1
 1980  1356  1359  1
 1981  1356  1437  1
 1982  1357  1362  1
 1983  1357  1358  1
 1984  1358  1359  1
 1985  1359  1360  1
 1986  1360  1363  1
 1987  1360  1441  1
 1988  1361  1362  1
 1989  1361  1366  1
 1990  1362  1363  1
 1991  1363  1364  1
 1992  1364  1367  1
 1993  1364  1445  1
 1994  1365  1366  1
 1995  1365  1370  1
 1996  1366  1367  1
 1997  1367  1368  1
 1998  1368  1371  1
 1999  1368  1449  1
 2000  1369  1370  1
 2001  1369  1374  1
 2002  1370  1371  1
 2003  1371  1372  1
 2004  1372  1375  1
 2005  1372  1453  1
 2006  1373  1378  1
 2007  1373  1374  1
 2008  1374  1375  1
 2009  1375  1376  1
 2010  1376  1379  1
 2011  1376  1457  1
 2012  1377  1382  1
 2013  1377  1378  1
 2014  1378  1379  1
 2015  1379  1380  1
 2016  1380  1383  1
 2017  1380  1461  1
 2018  1381  1386  1
 2019  1381  1382  1
 2020  1382  1383  1
 2021  1383  1384  1
 2022  1384  1387  1
 2023  1384  1465  1
 2024  1385  1386  1
 2025  1385  1390  1
 2026  1386  1387  1
 2027  1387  1388  1
 2028  1388  1391  1
 2029  1388  1469  1
 2030  1389  1390  1
 2031  1389  1394  1
 2032  1390  1391  1
 2033  1391  1392  1
 2034  1392  1395  1
 2035  1392  1473  1
 2036  1393  1398  1
 2037  1393  1394  1
 2038  1394  1395  1
 2039  1395  1396  1
 2040  1396  1399  1
 2041  1396  1477  1
 2042  1397  1402  1
 2043  1397  1398  1
 2044  1398  1399  1
 2045  1399  1400  1
 2046  1400  1403  1
 2047  1400  1481  1
 2048  1401  1406  1
 2049  1401  1402  1
 2050  1402  1403  1
 2051  1403  1404  1
 2052  1404  1407  1
 2053  1404  1485  1
 2054  1405  1406  1
 2055  1405  1410  1
 2056  1406  1407  1
 2057  1407  1408  1
 2058  1408  1411  1
 2059  1408  1489  1
 2060  1409  1410  1
 2061  1409  1414  1
 2062  1410  1411  1
 2063  1411  1412  1
 2064  1412  1415  1
 2065  1412  1493  1
 2066  1413  1414  1
 2067  1413  1418  1
 2068  1414  1415  1
 2069  1415  1416  1
 2070  1416  1419  1
 2071  1416  1497  1
 2072  1417  1422  1
 2073  1417  1418  1
 2074  1418  1419  1
 2075  1419  1420  1
 2076  1420  1423  1
 2077  1420  1501  1
 2078  1421  1426  1
 2079  1421  1422  1
 2080  1422  1423  1
 2081  1423  1424  1
 2082  1424  1427  1
 2083  1424  1505  1
 2084  1425  1426  1
 2085  1426  1427  1
 2086  1427  1428  1
 2087  1428  1509  1
 2088  1429  1430  1
 2089  1429  1434  1
 2090  1430  1431  1
 2091  1431  1432  1
 2092  1432  1435  1
 2093  1432  1513  1
 2094  1433  1434  1
 2095  1433  1438  1
 2096  1434  1435  1
 2097  1435  1436  1
 2098  1436  1439  1
 2099  1436  1517  1
 2100  1437  1438  1
 2101  1437  1442  1
 2102  1438  1439  1
 2103  1439  1440  1
 2104  1440  1443  1
 2105  1440  1521  1
 2106  1441  1446  1
 2107  1441  1442  1
 2108  1442  1443  1
 2109  1443  1444  1
 2110  1444  1447  1
 2111  1444  1525  1
 2112  1445  1450  1
 2113  1445  1446  1
 2114  1446  1447  1
 2115  1447  1448  1
 2116  1448  1451  1
 2117  1448  1529  1
 2118  1449  1450  1
 2119  1449  1454  1
 2120  1450  1451  1
 2121  1451  1452  1
 2122  1452  1455  1
 2123  1452  1533  1
 2124  1453  1454  1
 2125  1453  1458  1
 2126  1454  1455  1
 2127  1455  1456  1
 2128  1456  1459  1
 2129  1456  1537  1
 2130  1457  1462  1
 2131  1457  1458  1
 2132  1458  1459  1
 2133  1459  1460  1
 2134  1460  1463  1
 2135  1460  1541  1
 2136  1461  1466  1
 2137  1461  1462  1
 2138  1462  1463  1
 2139  1463  1464  1
 2140  1464  1467  1
 2141  1464  1545  1
 2142  1465  1470  1
 2143  1465  1466  1
 2144  1466  1467  1
 2145  1467  1468  1
 2146  1468  1471  1
 2147  1468  1549  1
 2148  1469  1470  1
 2149  1469  1474  1
 2150  1470  1471  1
 2151  1471  1472  1
 2152  1472  1475  1
 2153  1472  1553  1
 2154  1473  1474  1
 2155  1473  1478  1
 2156  1474  1475  1
 2157  1475  1476  1
 2158  1476  1479  1
 2159  1476  1557  1
 2160  1477  1482  1
 2161  1477  1478  1
 2162  1478  1479  1
 2163  1479  1480  1
 2164  1480  1483  1
 2165  1480  1561  1
 2166  1481  1486  1
 2167  1481  1482  1
 2168  1482  1483  1
 2169  1483  1484  1
 2170  1484  1487  1
 2171  1484  1565  1
 2172  1485  1490  1
 2173  1485  1486  1
 2174  1486  1487  1
 2175  1487  1488  1
 2176  1488  1491  1
 2177  1488  1569  1
 2178  1489  1490  1
 2179  1489  1494  1
 2180  1490  1491  1
 2181  1491  1492  1
 2182  1492  1495  1
 2183  1492  1573  1
 2184  1493  1494  1
 2185  1493  1498  1
 2186  1494  1495  1
 2187  1495  1496  1
 2188  1496  1499  1
 2189  1496  1577  1
 2190  1497  1502  1
 2191  1497  1498  1
 2192  1498  1499  1
 2193  1499  1500  1
 2194  1500  1503  1
 2195  1500  1581  1
 2196  1501  1506  1
 2197  1501  1502  1
 2198  1502  1503  1
 2199  1503  1504  1
 2200  1504  1507  1
 2201  1504  1585  1
 2202  1505  1510  1
 2203  1505  1506  1
 2204  1506  1507  1
 2205  1507  1508  1
 2206  1508  1511  1
 2207  1508  1589  1
 2208  1509  1510  1
 2209  1510  1511  1
 2210  1511  1512  1
 2211  1512  1593  1
 2212  1513  1514  1
 2213  1513  1518  1
 2214  1514  1515  1
 2215  1515  1516  1
 2216  1516  1519  1
 2217  1516  1597  1
 2218  1517  1518  1
 2219  1517  1522  1
 2220  1518  1519  1
 2221  1519  1520  1
 2222  1520  1523  1
 2223  1520  1601  1
 2224  1521  1526  1
 2225  1521  1522  1
 2226  1522  1523  1
 2227  1523  1524  1
 2228  1524  1527  1
 2229  1524  1605  1
 2230  1525  1530  1
 2231  1525  1526  1
 2232  1526  1527  1
 2233  1527  1528  1
 2234  1528  1531  1
 2235  1528  1609  1
 2236  1529  1534  1
 2237  1529  1530  1
 2238  1530  1531  1
 2239  1531  1532  1
 2240  1532  1535  1
 2241  1532  1613  1
 2242  1533  1534  1
 2243  1533  1538  1
 2244  1534  1535  1
 2245  1535  1536  1
 2246  1536  1539  1
 2247  1536  1617  1
 2248  1537  1538  1
 2249  1537  1542  1
 2250  1538  1539  1
 2251  1539  1540  1
 2252  1540  1543  1
 2253  1540  1621  1
 2254  1541  1546  1
 2255  1541  1542  1
 2256  1542  1543  1
 2257  1543  1544  1
 2258  1544  1547  1
 2259  1544  1625  1
 2260  1545  1550  1
 2261  1545  1546  1
 2262  1546  1547  1
 2263  1547  1548  1
 2264  1548  1551  1
 2265  1548  1629  1
 2266  1549  1554  1
 2267  1549  1550  1
 2268  1550  1551  1
 2269  1551  1552  1
 2270  1552  1555  1
 2271  1552  1633  1
 2272  1553  1554  1
 2273  1553  1558  1
 2274  1554  1555  1
 2275  1555  1556  1
 2276  1556  1559  1
 2277  1556  1637  1
 2278  1557  1558  1
 2279  1557  1562  1
 2280  1558  1559  1
 2281  1559  1560  1
 2282  1560  1563  1
 2283  1560  1641  1
 2284  1561  1566  1
 2285  1561  1562  1
 2286  1562  1563  1
 2287  1563  1564  1
 2288  1564  1567  1
 2289  1564  1645  1
 2290  1565  1570  1
 2291  1565  1566  1
 2292  1566  1567  1
 2293  1567  1568  1
 2294  1568  1571  1
 2295  1568  1649  1
 2296  1569  1570  1
 2297  1569  1574  1
 2298  1570  1571  1
 2299  1571  1572  1
 2300  1572  1575  1
 2301  1572  1653  1
 2302  1573  1574  1
 2303  1573  1578  1
 2304  1574  1575  1
 2305  1575  1576  1
 2306  1576  1579  1
 2307  1576  1657  1
 2308  1577  1578  1
 2309  1577  1582  1
 2310  1578  1579  1
 2311  1579  1580  1
 2312  1580  1583  1
 2313  1580  1661  1
 2314  1581  1586  1
 2315  1581  1582  1
 2316  1582  1583  1
 2317  1583  1584  1
 2318  1584  1587  1
 2319  1584  1665  1
 2320  1585  1590  1
 2321  1585  1586  1
 2322  1586  1587  1
 2323  1587  1588  1
 2324  1588  1591  1
 2325  1588  1669  1
 2326  1589  1594  1
 2327  1589  1590  1
 2328  1590  1591  1
 2329  1591  1592  1
 2330  1592  1595  1
 2331  1592  1673  1
 2332  1593  1594  1
 2333  1594  1595  1
 2334  1595  1596  1
 2335  1596  1677  1
 2336  1597  1598  1
 2337  1597  1602  1
 2338  1598  1599  1
 2339  1599  1600  1
 2340  1600  1603  1
 2341  1600  1681  1
 2342  1601  1602  1
 2343  1601  1606  1
 2344  1602  1603  1
 2345  1603  1604  1
 2346  1604  1607  1
 2347  1604  1685  1
 2348  1605  1610  1
 2349  1605  1606  1
 2350  1606  1607  1
 2351  1607  1608  1
 2352  1608  1611  1
 2353  1608  1689  1
 2354  1609  1614  1
 2355  1609  1610  1
 2356  1610  1611  1
 2357  1611  1612  1
 2358  1612  1615  1
 2359  1612  1693  1
 2360  1613  1618  1
 2361  1613  1614  1
 2362  1614  1615  1
 2363  1615  1616  1
 2364  1616  1619  1
 2365  1616  1697  1
 2366  1617  1618  1
 2367  1617  1622  1
 2368  1618  1619  1
 2369  1619  1620  1
 2370  1620  1623  1
 2371  1620  1701  1
 2372  1621  1622  1
 2373  1621  1626  1
 2374  1622  1623  1
 2375  1623  1624  1
 2376  1624  1627  1
 2377  1624  1705  1
 2378  1625  1630  1
 2379  1625  1626  1
 2380  1626  1627  1
 2381  1627  1628  1
 2382  1628  1631  1
 2383  1628  1709  1
 2384  1629  1634  1
 2385  1629  1630  1
 2386  1630  1631  1
 2387  1631  1632  1
 2388  1632  1635  1
 2389  1632  1713  1
 2390  1633  1638  1
 2391  1633  1634  1
 2392  1634  1635  1
 2393  1635  1636  1
 2394  1636  1639  1
 2395  1636  1717  1
 2396  1637  1638  1
 2397  1637  1642  1
 2398  1638  1639  1
 2399  1639  1640  1
 2400  1640  1643  1
 2401  1640  1721  1
 2402  1641  1642  1
 2403  1641  1646  1
 2404  1642  1643  1
 2405  1643  1644  1
 2406  1644  1647  1
 2407  1644  1725  1
 2408  1645  1646  1
 2409  1645  1650  1
 2410  1646  1647  1
 2411  1647  1648  1
 2412  1648  1651  1
 2413  1648  1729  1
 2414  1649  1654  1
 2415  1649  1650  1
 2416  1650  1651  1
 2417  1651  1652  1
 2418  1652  1655  1
 2419  1652  1733  1
 2420  1653  1658  1
 2421  1653  1654  1
 2422  1654  1655  1
 2423  1655  1656  1
 2424  1656  1659  1
 2425  1656  1737  1
 2426  1657  1658  1
 2427  1657  1662  1
 2428  1658  1659  1
 2429  1659  1660  1
 2430  1660  1663  1
 2431  1660  1741  1
 2432  1661  1662  1
 2433  1661  1666  1
 2434  1662  1663  1
 2435  1663  1664  1
 2436  1664  1667  1
 2437  1664  1745  1
 2438  1665  1670  1
 2439  1665  1666  1
 2440  1666  1667  1
 2441  1667  1668  1
 2442  1668  1671  1
 2443  1668  1749  1
 2444  1669  1674  1
 2445  1669  1670  1
 2446  1670  1671  1
 2447  1671  1672  1
 2448  1672  1675  1
 2449  1672  1753  1
 2450  1673  1678  1
 2451  1673  1674  1
 2452  1674  1675  1
 2453  1675  1676  1
 2454  1676  1679  1
 2455  1676  1757  1
 2456  1677  1678  1
 2457  1678  1679  1
 2458  1679  1680  1
 2459  1680  1761  1
 2460  1681  1682  1
 2461  1681  1686  1
 2462  1682  1683  1
 2463  1683  1684  1
 2464  1684  1687  1
 2465  1684  1765  1
 2466  1685  1686  1
 2467  1685  1690  1
 2468  1686  1687  1
 2469  1687  1688  1
 2470  1688  1691  1
 2471  1688  1769  1
 2472  1689  1694  1
 2473  1689  1690  1
 2474  1690  1691  1
 2475  1691  1692  1
 2476  1692  1695  1
 2477  1692  1773  1
 2478  1693  1698  1
 2479  1693  1694  1
 2480  1694  1695  1
 2481  1695  1696  1
 2482  1696  1699  1
 2483  1696  1777  1
 2484  1697  1702  1
 2485  1697  1698  1
 2486  1698  1699  1
 2487  1699  1700  1
 2488  1700  1703  1
 2489  1700  1781  1
 2490  1701  1702  1
 2491  1701  1706  1
 2492  1702  1703  1
 2493  1703  1704  1
 2494  1704  1707  1
 2495  1704  1785  1
 2496  1705  1706  1
 2497  1705  1710  1
 2498  1706  1707  1
 2499  1707  1708  1
 2500  1708  1711  1
 2501  1708  1789  1
 2502  1709  1714  1
 2503  1709  1710  1
 2504  1710  1711  1
 2505  1711  1712  1
 2506  1712  1715  1
 2507  1712  1793  1
 2508  1713  1718  1
 2509  1713  1714  1
 2510  1714  1715  1
 2511  1715  1716  1
 2512  1716  1719  1
 2513  1716  1797  1
 2514  1717  1722  1
 2515  1717  1718  1
 2516  1718  1719  1
 2517  1719  1720  1
 2518  1720  1723  1
 2519  1720  1801  1
 2520  1721  1722  1
 2521  1721  1726  1
 2522  1722  1723  1
 2523  1723  1724  1
 2524  1724  1727  1
 2525  1724  1805  1
 2526  1725  1726  1
 2527  1725  1730  1
 2528  1726  1727  1
 2529  1727  1728  1
 2530  1728  1731  1
 2531  1728  1809  1
 2532  1729  1734  1
 2533  1729  1730  1
 2534  1730  1731  1
 2535  1731  1732  1
 2536  1732  1735  1
 2537  1732  1813  1
 2538  1733  1738  1
 2539  1733  1734  1
 2540  1734  1735  1
 2541  1735  1736  1
 2542  1736  1739  1
 2543  1736  1817  1
 2544  1737  1742  1
 2545  1737  1738  1
 2546  1738  1739  1
 2547  1739  1740  1
 2548  1740  1743  1
 2549  1740  1821  1
 2550  1741  1742  1
 2551  1741  1746  1
 2552  1742  1743  1
 2553  1743  1744  1
 2554  1744  1747  1
 2555  1744  1825  1
 2556  1745  1746  1
 2557  1745  1750  1
 2558  1746  1747  1
 2559  1747  1748  1
 2560  1748  1751  1
 2561  1748  1829  1
 2562  1749  1754  1
 2563  1749  1750  1
 2564  1750  1751  1
 2565  1751  1752  1
 2566  1752  1755  1
 2567  1752  1833  1
 2568  1753  1758  1
 2569  1753  1754  1
 2570  1754  1755  1
 2571  1755  1756  1
 2572  1756  1759  1
 2573  1756  1837  1
 2574  1757  1762  1
 2575  1757  1758  1
 2576  1758  1759  1
 2577  1759  1760  1
 2578  1760  1763  1
 2579  1760  1841  1
 2580  1761  1762  1
 2581  1762  1763  1
 2582  1763  1764  1
 2583  1764  1845  1
 2584  1765  1766  1
 2585  1765  1770  1
 2586  1766  1767  1
 2587  1767  1768  1
 2588  1768  1771  1
 2589  1768  1849  1
 2590  1769  1770  1
 2591  1769  1774  1
 2592  1770  1771  1
 2593  1771  1772  1
 2594  1772  1775  1
 2595  1772  1853  1
 2596  1773  1778  1
 2597  1773  1774  1
 2598  1774  1775  1
 2599  1775  1776  1
 2600  1776  1779  1
 2601  1776  1857  1
 2602  1777  1782  1
 2603  1777  1778  1
 2604  1778  1779  1
 2605  1779  1780  1
 2606  1780  1783  1
 2607  1780  1861  1
 2608  1781  1786  1
 2609  1781  1782  1
 2610  1782  1783  1
 2611  1783  1784  1
 2612  1784  1787  1
 2613  1784  1865  1
 2614  1785  1786  1
 2615  1785  1790  1
 2616  1786  1787  1
 2617  1787  1788  1
 2618  1788  1791  1
 2619  1788  1869  1
 2620  1789  1790  1
 2621  1789  1794  1
 2622  1790  1791  1
 2623  1791  1792  1
 2624  1792  1795  1
 2625  1792  1873  1
 2626  1793  1798  1
 2627  1793  1794  1
 2628  1794  1795  1
 2629  1795  1796  1
 2630  1796  1799  1
 2631  1796  1877  1
 2632  1797  1802  1
 2633  1797  1798  1
 2634  1798  1799  1
 2635  1799  1800  1
 2636  1800  1803  1
 2637  1800  1881  1
 2638  1801  1802  1
 2639  1801  1806  1
 2640  1802  1803  1
 2641  1803  1804  1
 2642  1804  1807  1
 2643  1804  1885  1
 2644  1805  1806  1
 2645  1805  1810  1
 2646  1806  1807  1
 2647  1807  1808  1
 2648  1808  1811  1
 2649  1808  1889  1
 2650  1809  1810  1
 2651  1809  1814  1
 2652  1810  1811  1
 2653  1811  1812  1
 2654  1812  1815  1
 2655  1812  1893  1
 2656  1813  1818  1
 2657  1813  1814  1
 2658  1814  1815  1
 2659  1815  1816  1
 2660  1816  1819  1
 2661  1816  1897  1
 2662  1817  1822  1
 2663  1817  1818  1
 2664  1818  1819  1
 2665  1819  1820  1
 2666  1820  1823  1
 2667  1820  1901  1
 2668  1821  1826  1
 2669  1821  1822  1
 2670  1822  1823  1
 2671  1823  1824  1
 2672  1824  1827  1
 2673  1824  1905  1
 2674  1825  1826  1
 2675  1825  1830  1
 2676  1826  1827  1
 2677  1827  1828  1
 2678  1828  1831  1
 2679  1828  1909  1
 2680  1829  1830  1
 2681  1829  1834  1
 2682  1830  1831  1
 2683  1831  1832  1
 2684  1832  1835  1
 2685  1832  1913  1
 2686  1833  1838  1
 2687  1833  1834  1
 2688  1834  1835  1
 2689  1835  1836  1
 2690  1836  1839  1
 2691  1836  1917  1
 2692  1837  1842  1
 2693  1837  1838  1
 2694  1838  1839  1
 2695  1839  1840  1
 2696  1840  1843  1
 2697  1840  1921  1
 2698  1841  1846  1
 2699  1841  1842  1
 2700  1842  1843  1
 2701  1843  1844  1
 2702  1844  1847  1
 2703  1844  1925  1
 2704  1845  1846  1
 2705  1846  1847  1
 2706  1847  1848  1
 2707  1848  1929  1
 2708  1849  1850  1
 2709  1849  1854  1
 2710  1850  1851  1
 2711  1851  1852  1
 2712  1852  1855  1
 2713  1852  1933  1
 2714  1853  1854  1
 2715  1853  1858  1
 2716  1854  1855  1
 2717  1855  1856  1
 2718  1856  1859  1
 2719  1856  1937  1
 2720  1857  1862  1
 2721  1857  1858  1
 2722  1858  1859  1
 2723  1859  1860  1
 2724  1860  1863  1
 2725  1860  1941  1
 2726  1861  1866  1
 2727  1861  1862  1
 2728  1862  1863  1
 2729  1863  1864  1
 2730  1864  1867  1
 2731  1864  1945  1
 2732  1865  1870  1
 2733  1865  1866  1
 2734  1866  1867  1
 2735  1867  1868  1
 2736  1868  1871  1
 2737  1868  1949  1
 2738  1869  1870  1
 2739  1869  1874  1
 2740  1870  1871  1
 2741  1871  1872  1
 2742  1872  1875  1
 2743  1872  1953  1
 2744  1873  1874  1
 2745  1873  1878  1
 2746  1874  1875  1
 2747  1875  1876  1
 2748  1876  1879  1
 2749  1876  1957  1
 2750  1877  1878  1
 2751  1877  1882  1
 2752  1878  1879  1
 2753  1879  1880  1
 2754  1880  1883  1
 2755  1880  1961  1
 2756  1881  1886  1
 2757  1881  1882  1
 2758  1882  1883  1
 2759  1883  1884  1
 2760  1884  1887  1
 2761  1884  1965  1
 2762  1885  1890  1
 2763  1885  1886  1
 2764  1886  1887  1
 2765  1887  1888  1
 2766  1888  1891  1
 2767  1888  1969  1
 2768  1889  1890  1
 2769  1889  1894  1
 2770  1890  1891  1
 2771  1891  1892  1
 2772  1892  1895  1
 2773  1892  1973  1
 2774  1893  1894  1
 2775  1893  1898  1
 2776  1894  1895  1
 2777  1895  1896  1
 2778  1896  1899  1
 2779  1896  1977  1
 2780  1897  1902  1
 2781  1897  1898  1
 2782  1898  1899  1
 2783  1899  1900  1
 2784  1900  1903  1
 2785  1900  1981  1
 2786  1901  1906  1
 2787  1901  1902  1
 2788  1902  1903  1
 2789  1903  1904  1
 2790  1904  1907  1
 2791  1904  1985  1
 2792  1905  1910  1
 2793  1905  1906  1
 2794  1906  1907  1
 2795  1907  1908  1
 2796  1908  1911  1
 2797  1908  1989  1
 2798  1909  1910  1
 2799  1909  1914  1
 2800  1910  1911  1
 2801  1911  1912  1
 2802  1912  1915  1
 2803  1912  1993  1
 2804  1913  1914  1
 2805  1913  1918  1
 2806  1914  1915  1
 2807  1915  1916  1
 2808  1916  1919  1
 2809  1916  1997  1
 2810  1917  1922  1
 2811  1917  1918  1
 2812  1918  1919  1
 2813  1919  1920  1
 2814  1920  1923  1
 2815  1920  2001  1
 2816  1921  1926  1
 2817  1921  1922  1
 2818  1922  1923  1
 2819  1923  1924  1
 2820  1924  1927  1
 2821  1924  2005  1
 2822  1925  1930  1
 2823  1925  1926  1
 2824  1926  1927  1
 2825  1927  1928  1
 2826  1928  1931  1
 2827  1928  2009  1
 2828  1929  1930  1
 2829  1930  1931  1
 2830  1931  1932  1
 2831  1932  2013  1
 2832  1933  1934  1
 2833  1933  1938  1
 2834  1934  1935  1
 2835  1935  1936  1
 2836  1936  1939  1
 2837  1937  1938  1
 2838  1937  1942  1
 2839  1938  1939  1
 2840  1939  1940  1
 2841  1940  1943  1
 2842  1941  1946  1
 2843  1941  1942  1
 2844  1942  1943  1
 2845  1943  1944  1
 2846  1944  1947  1
 2847  1945  1950  1
 2848  1945  1946  1
 2849  1946  1947  1
 2850  1947  1948  1
 2851  1948  1951  1
 2852  1949  1954  1
 2853  1949  1950  1
 2854  1950  1951  1
 2855  1951  1952  1
 2856  1952  1955  1
 2857  1953  1954  1
 2858  1953  1958  1
 2859  1954  1955  1
 2860  1955  1956  1
 2861  1956  1959  1
 2862  1957  1958  1
 2863  1957  1962  1
 2864  1958  1959  1
 2865  1959  1960  1
 2866  1960  1963  1
 2867  1961  1966  1
 2868  1961  1962  1
 2869  1962  1963  1
 2870  1963  1964  1
 2871  1964  1967  1
 2872  1965  1970  1
 2873  1965  1966  1
 2874  1966  1967  1
 2875  1967  1968  1
 2876  1968  1971  1
 2877  1969  1974  1
 2878  1969  1970  1
 2879  1970  1971  1
 2880  1971  1972  1
 2881  1972  1975  1
 2882  1973  1974  1
 2883  1973  1978  1
 2884  1974  1975  1
 2885  1975  1976  1
 2886  1976  1979  1
 2887  1977  1978  1
 2888  1977  1982  1
 2889  1978  1979  1
 2890  1979  1980  1
 2891  1980  1983  1
 2892  1981  1986  1
 2893  1981  1982  1
 2894  1982  1983  1
 2895  1983  1984  1
 2896  1984  1987  1
 2897  1985  1990  1
 2898  1985  1986  1
 2899  1986  1987  1
 2900  1987  1988  1
 2901  1988  1991  1
 2902  1989  1994  1
 2903  1989  1990  1
 2904  1990  1991  1
 2905  1991  1992  1
 2906  1992  1995  1
 2907  1993  1994  1
 2908  1993  1998  1
 2909  1994  1995  1
 2910  1995  1996  1
 2911  1996  1999  1
 2912  1997  1998  1
 2913  1997  2002  1
 2914  1998  1999  1
 2915  1999  2000  1
 2916  2000  2003  1
 2917  2001  2006  1
 2918  2001  2002  1
 2919  2002  2003  1
 2920  2003  2004  1
 2921  2004  2007  1
 2922  2005  2010  1
 2923  2005  2006  1
 2924  2006  2007  1
 2925  2007  2008  1
 2926  2008  2011  1
 2927  2009  2010  1
 2928  2009  2014  1
 2929  2010  2011  1
 2930  2011  2012  1
 2931  2012  2015  1
 2932  2013  2014  1
 2933  2014  2015  1
 2934  2015  2016  1
 2935  2017  2018  1
 2936  2017  2022  1
 2937  2018  2019  1
 2938  2019  2020  1
 2939  2020  2023  1
 2940  2020  2101  1
 2941  2021  2022  1
 2942  2021  2026  1
 2943  2022  2023  1
 2944  2023  2024  1
 2945  2024  2027  1
 2946  2024  2105  1
 2947  2025  2030  1
 2948  2025  2026  1
 2949  2026  2027  1
 2950  2027  2028  1
 2951  2028  2031  1
 2952  2028  2109  1
 2953  2029  2034  1
 2954  2029  2030  1
 2955  2030  2031  1
 2956  2031  2032  1
 2957  2032  2035  1
 2958  2032  2113  1
 2959  2033  2038  1
 2960  2033  2034  1
 2961  2034  2035  1
 2962  2035  2036  1
 2963  2036  2039  1
 2964  2036  2117  1
 2965  2037  2038  1
 2966  2037  2042  1
 2967  2038  2039  1
 2968  2039  2040  1
 2969  2040  2043  1
 2970  2040  2121  1
 2971  2041  2042  1
 2972  2041  2046  1
 2973  2042  2043  1
 2974  2043  2044  1
 2975  2044  2047  1
 2976  2044  2125  1
 2977  2045  2050  1
 2978  2045  2046  1
 2979  2046  2047  1
 2980  2047  2048  1
 2981  2048  2051  1
 2982  2048  2129  1
 2983  2049  2054  1
 2984  2049  2050  1
 2985  2050  2051  1
 2986  2051  2052  1
 2987  2052  2055  1
 2988  2052  2133  1
 2989  2053  2058  1
 2990  2053  2054  1
 2991  2054  2055  1
 2992  2055  2056  1
 2993  2056  2059  1
 2994  2056  2137  1
 2995  2057  2058  1
 2996  2057  2062  1
 2997  2058  2059  1
 2998  2059  2060  1
 2999  2060  2063  1
 3000  2060  2141  1
 3001  2061  2062  1
 3002  2061  2066  1
 3003  2062  2063  1
 3004  2063  2064  1
 3005  2064  2067  1
 3006  2064  2145  1
 3007  2065  2070  1
 3008  2065  2066  1
 3009  2066  2067  1
 3010  2067  2068  1
 3011  2068  2071  1
 3012  2068  2149  1
 3013  2069  2074  1
 3014  2069  2070  1
 3015  2070  2071  1
 3016  2071  2072  1
 3017  2072  2075  1
 3018  2072  2153  1
 3019  2073  2078  1
 3020  2073  2074  1
 3021  2074  2075  1
 3022  2075  2076  1
 3023  2076  2079  1
 3024  2076  2157  1
 3025  2077  2078  1
 3026  2077  2082  1
 3027  2078  2079  1
 3028  2079  2080  1
 3029  2080  2083  1
 3030  2080  2161  1
 3031  2081  2082  1
 3032  2081  2086  1
 3033  2082  2083  1
 3034  2083  2084  1
 3035  2084  2087  1
 3036  2084  2165  1
 3037  2085  2090  1
 3038  2085  2086  1
 3039  2086  2087  1
 3040  2087  2088  1
 3041  2088  2091  1
 3042  2088  2169  1
 3043  2089  2094  1
 3044  2089  2090  1
 3045  2090  2091  1
 3046  2091  2092  1
 3047  2092  2095  1
 3048  2092  2173  1
 3049  2093  2098  1
 3050  2093  2094  1
 3051  2094  2095  1
 3052  2095  2096  1
 3053  2096  2099  1
 3054  2096  2177  1
 3055  2097  2098  1
 3056  2098  2099  1
 3057  2099  2100  1
 3058  2100  2181  1
 3059  2101  2102  1
 3060  2101  2106  1
 3061  2102  2103  1
 3062  2103  2104  1
 3063  2104  2107  1
 3064  2104  2185  1
 3065  2105  2106  1
 3066  2105  2110  1
 3067  2106  2107  1
 3068  2107  2108  1
 3069  2108  2111  1
 3070  2108  2189  1
 3071  2109  2114  1
 3072  2109  2110  1
 3073  2110  2111  1
 3074  2111  2112  1
 3075  2112  2115  1
 3076  2112  2193  1
 3077  2113  2118  1
 3078  2113  2114  1
 3079  2114  2115  1
 3080  2115  2116  1
 3081  2116  2119  1
 3082  2116  2197  1
 3083  2117  2122  1
 3084  2117  2118  1
 3085  2118  2119  1
 3086  2119  2120  1
 3087  2120  2123  1
 3088  2120  2201  1
 3089  2121  2122  1
 3090  2121  2126  1
 3091  2122  2123  1
 3092  2123  2124  1
 3093  2124  2127  1
 3094  2124  2205  1
 3095  2125  2126  1
 3096  2125  2130  1
 3097  2126  2127  1
 3098  2127  2128  1
 3099  2128  2131  1
 3100  2128  2209  1
 3101  2129  2134  1
 3102  2129  2130  1
 3103  2130  2131  1
 3104  2131  2132  1
 3105  2132  2135  1
 3106  2132  2213  1
 3107  2133  2138  1
 3108  2133  2134  1
 3109  2134  2135  1
 3110  2135  2136  1
 3111  2136  2139  1
 3112  2136  2217  1
 3113  2137  2142  1
 3114  2137  2138  1
 3115  2138  2139  1
 3116  2139  2140  1
 3117  2140  2143  1
 3118  2140  2221  1
 3119  2141  2142  1
 3120  2141  2146  1
 3121  2142  2143  1
 3122  2143  2144  1
 3123  2144  2147  1
 3124  2144  2225  1
 3125  2145  2146  1
 3126  2145  2150  1
 3127  2146  2147  1
 3128  2147  2148  1
 3129  2148  2151  1
 3130  2148  2229  1
 3131  2149  2154  1
 3132  2149  2150  1
 3133  2150  2151  1
 3134  2151  2152  1
 3135  2152  2155  1
 3136  2152  2233  1
 3137  2153  2154  1
 3138  2153  2158  1
 3139  2154  2155  1
 3140  2155  2156  1
 3141  2156  2159  1
 3142  2156  2237  1
 3143  2157  2162  1
 3144  2157  2158  1
 3145  2158  2159  1
 3146  2159  2160  1
 3147  2160  2163  1
 3148  2160  2241  1
 3149  2161  2162  1
 3150  2161  2166  1
 3151  2162  2163  1
 3152  2163  2164  1
 3153  2164  2167  1
 3154  2164  2245  1
 3155  2165  2166  1
 3156  2165  2170  1
 3157  2166  2167  1
 3158  2167  2168  1
 3159  2168  2171  1
 3160  2168  2249  1
 3161  2169  2174  1
 3162  2169  2170  1
 3163  2170  2171  1
 3164  2171  2172  1
 3165  2172  2175  1
 3166  2172  2253  1
 3167  2173  2178  1
 3168  2173  2174  1
 3169  2174  2175  1
 3170  2175  2176  1
 3171  2176  2179  1
 3172  2176  2257  1
 3173  2177  2182  1
 3174  2177  2178  1
 3175  2178  2179  1
 3176  2179  2180  1
 3177  2180  2183  1
 3178  2180  2261  1
 3179  2181  2182  1
 3180  2182  2183  1
 3181  2183  2184  1
 3182  2184  2265  1
 3183  2185  2186  1
 3184  2185  2190  1
 3185  2186  2187  1
 3186  2187  2188  1
 3187  2188  2191  1
 3188  2188  2269  1
 3189  2189  2190  1
 3190  2189  2194  1
 3191  2190  2191  1
 3192  2191  2192  1
 3193  2192  2195  1
 3194  2192  2273  1
 3195  2193  2198  1
 3196  2193  2194  1
 3197  2194  2195  1
 3198  2195  2196  1
 3199  2196  2199  1
 3200  2196  2277  1
 3201  2197  2202  1
 3202  2197  2198  1
 3203  2198  2199  1
 3204  2199  2200  1
 3205  2200  2203  1
 3206  2200  2281  1
 3207  2201  2206  1
 3208  2201  2202  1
 3209  2202  2203  1
 3210  2203  2204  1
 3211  2204  2207  1
 3212  2204  2285  1
 3213  2205  2206  1
 3214  2205  2210  1
 3215  2206  2207  1
 3216  2207  2208  1
 3217  2208  2211  1
 3218  2208  2289  1
 3219  2209  2210  1
 3220  2209  2214  1
 3221  2210  2211  1
 3222  2211  2212  1
 3223  2212  2215  1
 3224  2212  2293  1
 3225  2213  2218  1
 3226  2213  2214  1
 3227  2214  2215  1
 3228  2215  2216  1
 3229  2216  2219  1
 3230  2216  2297  1
 3231  2217  2222  1
 3232  2217  2218  1
 3233  2218  2219  1
 3234  2219  2220  1
 3235  2220  2223  1
 3236  2220  2301  1
 3237  2221  2226  1
 3238  2221  2222  1
 3239  2222  2223  1
 3240  2223  2224  1
 3241  2224  2227  1
 3242  2224  2305  1
 3243  2225  2226  1
 3244  2225  2230  1
 3245  2226  2227  1
 3246  2227  2228  1
 3247  2228  2231  1
 3248  2228  2309  1
 3249  2229  2230  1
 3250  2229  2234  1
 3251  2230  2231  1
 3252  2231  2232  1
 3253  2232  2235  1
 3254  2232  2313  1
 3255  2233  2238  1
 3256  2233  2234  1
 3257  2234  2235  1
 3258  2235  2236  1
 3259  2236  2239  1
 3260  2236  2317  1
 3261  2237  2242  1
 3262  2237  2238  1
 3263  2238  2239  1
 3264  2239  2240  1
 3265  2240  2243  1
 3266  2240  2321  1
 3267  2241  2246  1
 3268  2241  2242  1
 3269  2242  2243  1
 3270  2243  2244  1
 3271  2244  2247  1
 3272  2244  2325  1
 3273  2245  2246  1
 3274  2245  2250  1
 3275  2246  2247  1
 3276  2247  2248  1
 3277  2248  2251  1
 3278  2248  2329  1
 3279  2249  2250  1
 3280  2249  2254  1
 3281  2250  2251  1
 3282  2251  2252  1
 3283  2252  2255  1
 3284  2252  2333  1
 3285  2253  2258  1
 3286  2253  2254  1
 3287  2254  2255  1
 3288  2255  2256  1
 3289  2256  2259  1
 3290  2256  2337  1
 3291  2257  2262  1
 3292  2257  2258  1
 3293  2258  2259  1
 3294  2259  2260  1
 3295  2260  2263  1
 3296  2260  2341  1
 3297  2261  2266  1
 3298  2261  2262  1
 3299  2262  2263  1
 3300  2263  2264  1
 3301  2264  2267  1
 3302  2264  2345  1
 3303  2265  2266  1
 3304  2266  2267  1
 3305  2267  2268  1
 3306  2268  2349  1
 3307  2269  2270  1
 3308  2269  2274  1
 3309  2270  2271  1
 3310  2271  2272  1
 3311  2272  2275  1
 3312  2272  2353  1
 3313  2273  2274  1
 3314  2273  2278  1
 3315  2274  2275  1
 3316  2275  2276  1
 3317  2276  2279  1
 3318  2276  2357  1
 3319  2277  2282  1
 3320  2277  2278  1
 3321  2278  2279  1
 3322  2279  2280  1
 3323  2280  2283  1
 3324  2280  2361  1
 3325  2281  2286  1
 3326  2281  2282  1
 3327  2282  2283  1
 3328  2283  2284  1
 3329  2284  2287  1
 3330  2284  2365  1
 3331  2285  2290  1
 3332  2285  2286  1
 3333  2286  2287  1
 3334  2287  2288  1
 3335  2288  2291  1
 3336  2288  2369  1
 3337  2289  2290  1
 3338  2289  2294  1
 3339  2290  2291  1
 3340  2291  2292  1
 3341  2292  2295  1
 3342  2292  2373  1
 3343  2293  2294  1
 3344  2293  2298  1
 3345  2294  2295  1
 3346  2295  2296  1
 3347  2296  2299  1
 3348  2296  2377  1
 3349  2297  2302  1
 3350  2297  2298  1
 3351  2298  2299  1
 3352  2299  2300  1
 3353  2300  2303  1
 3354  2300  2381  1
 3355  2301  2306  1
 3356  2301  2302  1
 3357  2302  2303  1
 3358  2303  2304  1
 3359  2304  2307  1
 3360  2304  2385  1
 3361  2305  2310  1
 3362  2305  2306  1
 3363  2306  2307  1
 3364  2307  2308  1
 3365  2308  2311  1
 3366  2308  2389  1
 3367  2309  2310  1
 3368  2309  2314  1
 3369  2310  2311  1
 3370  2311  2312  1
 3371  2312  2315  1
 3372  2312  2393  1
 3373  2313  2314  1
 3374  2313  2318  1
 3375  2314  2315  1
 3376  2315  2316  1
 3377  2316  2319  1
 3378  2316  2397  1
 3379  2317  2322  1
 3380  2317  2318  1
 3381  2318  2319  1
 3382  2319  2320  1
 3383  2320  2323  1
 3384  2320  2401  1
 3385  2321  2326  1
 3386  2321  2322  1
 3387  2322  2323  1
 3388  2323  2324  1
 3389  2324  2327  1
 3390  2324  2405  1
 3391  2325  2330  1
 3392  2325  2326  1
 3393  2326  2327  1
 3394  2327  2328  1
 3395  2328  2331  1
 3396  2328  2409  1
 3397  2329  2330  1
 3398  2329  2334  1
 3399  2330  2331  1
 3400  2331  2332  1
 3401  2332  2335  1
 3402  2332  2413  1
 3403  2333  2334  1
 3404  2333  2338  1
 3405  2334  2335  1
 3406  2335  2336  1
 3407  2336  2339  1
 3408  2336  2417  1
 3409  2337  2342  1
 3410  2337  2338  1
 3411  2338  2339  1
 3412  2339  2340  1
 3413  2340  2343  1
 3414  2340  2421  1
 3415  2341  2346  1
 3416  2341  2342  1
 3417  2342  2343  1
 3418  2343  2344  1
 3419  2344  2347  1
 3420  2344  2425  1
 3421  2345  2350  1
 3422  2345  2346  1
 3423  2346  2347  1
 3424  2347  2348  1
 3425  2348  2351  1
 3426  2348  2429  1
 3427  2349  2350  1
 3428  2350  2351  1
 3429  2351  2352  1
 3430  2352  2433  1
 3431  2353  2354  1
 3432  2353  2358  1
 3433  2354  2355  1
 3434  2355  2356  1
 3435  2356  2359  1
 3436  2356  2437  1
 3437  2357  2358  1
 3438  2357  2362  1
 3439  2358  2359  1
 3440  2359  2360  1
 3441  2360  2363  1
 3442  2360  2441  1
 3443  2361  2366  1
 3444  2361  2362  1
 3445  2362  2363  1
 3446  2363  2364  1
 3447  2364  2367  1
 3448  2364  2445  1
 3449  2365  2370  1
 3450  2365  2366  1
 3451  2366  2367  1
 3452  2367  2368  1
 3453  2368  2371  1
 3454  2368  2449  1
 3455  2369  2374  1
 3456  2369  2370  1
 3457  2370  2371  1
 3458  2371  2372  1
 3459  2372  2375  1
 3460  2372  2453  1
 3461  2373  2374  1
 3462  2373  2378  1
 3463  2374  2375  1
 3464  2375  2376  1
 3465  2376  2379  1
 3466  2376  2457  1
 3467  2377  2378  1
 3468  2377  2382  1
 3469  2378  2379  1
 3470  2379  2380  1
 3471  2380  2383  1
 3472  2380  2461  1
 3473  2381  2386  1
 3474  2381  2382  1
 3475  2382  2383  1
 3476  2383  2384  1
 3477  2384  2387  1
 3478  2384  2465  1
 3479  2385  2386  1
 3480  2385  2390  1
 3481  2386  2387  1
 3482  2387  2388  1
 3483  2388  2391  1
 3484  2388  2469  1
 3485  2389  2394  1
 3486  2389  2390  1
 3487  2390  2391  1
 3488  2391  2392  1
 3489  2392  2395  1
 3490  2392  2473  1
 3491  2393  2394  1
 3492  2393  2398  1
 3493  2394  2395  1
 3494  2395  2396  1
 3495  2396  2399  1
 3496  2396  2477  1
 3497  2397  2398  1
 3498  2397  2402  1
 3499  2398  2399  1
 3500  2399  2400  1
 3501  2400  2403  1
 3502  2400  2481  1
 3503  2401  2406  1
 3504  2401  2402  1
 3505  2402  2403  1
 3506  2403  2404  1
 3507  2404  2407  1
 3508  2404  2485  1
 3509  2405  2410  1
 3510  2405  2406  1
 3511  2406  2407  1
 3512  2407  2408  1
 3513  2408  2411  1
 3514  2408  2489  1
 3515  2409  2414  1
 3516  2409  2410  1
 3517  2410  2411  1
 3518  2411  2412  1
 3519  2412  2415  1
 3520  2412  2493  1
 3521  2413  2414  1
 3522  2413  2418  1
 3523  2414  2415  1
 3524  2415  2416  1
 3525  2416  2419  1
 3526  2416  2497  1
 3527  2417  2418  1
 3528  2417  2422  1
 3529  2418  2419  1
 3530  2419  2420  1
 3531  2420  2423  1
 3532  2420  2501  1
 3533  2421  2426  1
 3534  2421  2422  1
 3535  2422  2423  1
 3536  2423  2424  1
 3537  2424  2427  1
 3538  2424  2505  1
 3539  2425  2430  1
 3540  2425  2426  1
 3541  2426  2427  1
 3542  2427  2428  1
 3543  2428  2431  1
 3544  2428  2509  1
 3545  2429  2434  1
 3546  2429  2430  1
 3547  2430  2431  1
 3548  2431  2432  1
 3549  2432  2435  1
 3550  2432  2513  1
 3551  2433  2434  1
 3552  2434  2435  1
 3553  2435  2436  1
 3554  2436  2517  1
 3555  2437  2438  1
 3556  2437  2442  1
 3557  2438  2439  1
 3558  2439  2440  1
 3559  2440  2443  1
 3560  2440  2521  1
 3561  2441  2442  1
 3562  2441  2446  1
 3563  2442  2443  1
 3564  2443  2444  1
 3565  2444  2447  1
 3566  2444  2525  1
 3567  2445  2450  1
 3568  2445  2446  1
 3569  2446  2447  1
 3570  2447  2448  1
 3571  2448  2451  1
 3572  2448  2529  1
 3573  2449  2454  1
 3574  2449  2450  1
 3575  2450  2451  1
 3576  2451  2452  1
 3577  2452  2455  1
 3578  2452  2533  1
 3579  2453  2458  1
 3580  2453  2454  1
 3581  2454  2455  1
 3582  2455  2456  1
 3583  2456  2459  1
 3584  2456  2537  1
 3585  2457  2458  1
 3586  2457  2462  1
 3587  2458  2459  1
 3588  2459  2460  1
 3589  2460  2463  1
 3590  2460  2541  1
 3591  2461  2462  1
 3592  2461  2466  1
 3593  2462  2463  1
 3594  2463  2464  1
 3595  2464  2467  1
 3596  2464  2545  1
 3597  2465  2470  1
 3598  2465  2466  1
 3599  2466  2467  1
 3600  2467  2468  1
 3601  2468  2471  1
 3602  2468  2549  1
 3603  2469  2474  1
 3604  2469  2470  1
 3605  2470  2471  1
 3606  2471  2472  1
 3607  2472  2475  1
 3608  2472  2553  1
 3609  2473  2478  1
 3610  2473  2474  1
 3611  2474  2475  1
 3612  2475  2476  1
 3613  2476  2479  1
 3614  2476  2557  1
 3615  2477  2478  1
 3616  2477  2482  1
 3617  2478  2479  1
 3618  2479  2480  1
 3619  2480  2483  1
 3620  2480  2561  1
 3621  2481  2482  1
 3622  2481  2486  1
 3623  2482  2483  1
 3624  2483  2484  1
 3625  2484  2487  1
 3626  2484  2565  1
 3627  2485  2490  1
 3628  2485  2486  1
 3629  2486  2487  1
 3630  2487  2488  1
 3631  2488  2491  1
 3632  2488  2569  1
 3633  2489  2494  1
 3634  2489  2490  1
 3635  2490  2491  1
 3636  2491  2492  1
 3637  2492  2495  1
 3638  2492  2573  1
 3639  2493  2498  1
 3640  2493  2494  1
 3641  2494  2495  1
 3642  2495  2496  1
 3643  2496  2499  1
 3644  2496  2577  1
 3645  2497  2498  1
 3646  2497  2502  1
 3647  2498  2499  1
 3648  2499  2500  1
 3649  2500  2503  1
 3650  2500  2581  1
 3651  2501  2502  1
 3652  2501  2506  1
 3653  2502  2503  1
 3654  2503  2504  1
 3655  2504  2507  1
 3656  2504  2585  1
 3657  2505  2510  1
 3658  2505  2506  1
 3659  2506  2507  1
 3660  2507  2508  1
 3661  2508  2511  1
 3662  2508  2589  1
 3663  2509  2514  1
 3664  2509  2510  1
 3665  2510  2511  1
 3666  2511  2512  1
 3667  2512  2515  1
 3668  2512  2593  1
 3669  2513  2518  1
 3670  2513  2514  1
 3671  2514  2515  1
 3672  2515  2516  1
 3673  2516  2519  1
 3674  2516  2597  1
 3675  2517  2518  1
 3676  2518  2519  1
 3677  2519  2520  1
 3678  2520  2601  1
 3679  2521  2522  1
 3680  2521  2526  1
 3681  2522  2523  1
 3682  2523  2524  1
 3683  2524  2527  1
 3684  2524  2605  1
 3685  2525  2526  1
 3686  2525  2530  1
 3687  2526  2527  1
 3688  2527  2528  1
 3689  2528  2531  1
 3690  2528  2609  1
 3691  2529  2534  1
 3692  2529  2530  1
 3693  2530  2531  1
 3694  2531  2532  1
 3695  2532  2535  1
 3696  2532  2613  1
 3697  2533  2538  1
 3698  2533  2534  1
 3699  2534  2535  1
 3700  2535  2536  1
 3701  2536  2539  1
 3702  2536  2617  1
 3703  2537  2542  1
 3704  2537  2538  1
 3705  2538  2539  1
 3706  2539  2540  1
 3707  2540  2543  1
 3708  2540  2621  1
 3709  2541  2542  1
 3710  2541  2546  1
 3711  2542  2543  1
 3712  2543  2544  1
 3713  2544  2547  1
 3714  2544  2625  1
 3715  2545  2546  1
 3716  2545  2550  1
 3717  2546  2547  1
 3718  2547  2548  1
 3719  2548  2551  1
 3720  2548  2629  1
 3721  2549  2554  1
 3722  2549  2550  1
 3723  2550  2551  1
 3724  2551  2552  1
 3725  2552  2555  1
 3726  2552  2633  1
 3727  2553  2558  1
 3728  2553  2554  1
 3729  2554  2555  1
 3730  2555  2556  1
 3731  2556  2559  1
 3732  2556  2637  1
 3733  2557  2562  1
 3734  2557  2558  1
 3735  2558  2559  1
 3736  2559  2560  1
 3737  2560  2563  1
 3738  2560  2641  1
 3739  2561  2562  1
 3740  2561  2566  1
 3741  2562  2563  1
 3742  2563  2564  1
 3743  2564  2567  1
 3744  2564  2645  1
 3745  2565  2566  1
 3746  2565  2570  1
 3747  2566  2567  1
 3748  2567  2568  1
 3749  2568  2571  1
 3750  2568  2649  1
 3751  2569  2574  1
 3752  2569  2570  1
 3753  2570  2571  1
 3754  2571  2572  1
 3755  2572  2575  1
 3756  2572  2653  1
 3757  2573  2578  1
 3758  2573  2574  1
 3759  2574  2575  1
 3760  2575  2576  1
 3761  2576  2579  1
 3762  2576  2657  1
 3763  2577  2582  1
 3764  2577  2578  1
 3765  2578  2579  1
 3766  2579  2580  1
 3767  2580  2583  1
 3768  2580  2661  1
 3769  2581  2582  1
 3770  2581  2586  1
 3771  2582  2583  1
 3772  2583  2584  1
 3773  2584  2587  1
 3774  2584  2665  1
 3775  2585  2586  1
 3776  2585  2590  1
 3777  2586  2587  1
 3778  2587  2588  1
 3779  2588  2591  1
 3780  2588  2669  1
 3781  2589  2594  1
 3782  2589  2590  1
 3783  2590  2591  1
 3784  2591  2592  1
 3785  2592  2595  1
 3786  2592  2673  1
 3787  2593  2594  1
 3788  2593  2598  1
 3789  2594  2595  1
 3790  2595  2596  1
 3791  2596  2599  1
 3792  2596  2677  1
 3793  2597  2602  1
 3794  2597  2598  1
 3795  2598  2599  1
 3796  2599  2600  1
 3797  2600  2603  1
 3798  2600  2681  1
 3799  2601  2602  1
 3800  2602  2603  1
 3801  2603  2604  1
 3802  2604  2685  1
 3803  2605  2606  1
 3804  2605  2610  1
 3805  2606  2607  1
 3806  2607  2608  1
 3807  2608  2611  1
 3808  2608  2689  1
 3809  2609  2610  1
 3810  2609  2614  1
 3811  2610  2611  1
 3812  2611  2612  1
 3813  2612  2615  1
 3814  2612  2693  1
 3815  2613  2618  1
 3816  2613  2614  1
 3817  2614  2615  1
 3818  2615  2616  1
 3819  2616  2619  1
 3820  2616  2697  1
 3821  2617  2618  1
 3822  2617  2622  1
 3823  2618  2619  1
 3824  2619  2620  1
 3825  2620  2623  1
 3826  2620  2701  1
 3827  2621  2626  1
 3828  2621  2622  1
 3829  2622  2623  1
 3830  2623  2624  1
 3831  2624  2627  1
 3832  2624  2705  1
 3833  2625  2626  1
 3834  2625  2630  1
 3835  2626  2627  1
 3836  2627  2628  1
 3837  2628  2631  1
 3838  2628  2709  1
 3839  2629  2630  1
 3840  2629  2634  1
 3841  2630  2631  1
 3842  2631  2632  1
 3843  2632  2635  1
 3844  2632  2713  1
 3845  2633  2638  1
 3846  2633  2634  1
 3847  2634  2635  1
 3848  2635  2636  1
 3849  2636  2639  1
 3850  2636  2717  1
 3851  2637  2642  1
 3852  2637  2638  1
 3853  2638  2639  1
 3854  2639  2640  1
 3855  2640  2643  1
 3856  2640  2721  1
 3857  2641  2646  1
 3858  2641  2642  1
 3859  2642  2643  1
 3860  2643  2644  1
 3861  2644  2647  1
 3862  2644  2725  1
 3863  2645  2646  1
 3864  2645  2650  1
 3865  2646  2647  1
 3866  2647  2648  1
 3867  2648  2651  1
 3868  2648  2729  1
 3869  2649  2650  1
 3870  2649  2654  1
 3871  2650  2651  1
 3872  2651  2652  1
 3873  2652  2655  1
 3874  2652  2733  1
 3875  2653  2658  1
 3876  2653  2654  1
 3877  2654  2655  1
 3878  2655  2656  1
 3879  2656  2659  1
 3880  2656  2737  1
 3881  2657  2662  1
 3882  2657  2658  1
 3883  2658  2659  1
 3884  2659  2660  1
 3885  2660  2663  1
 3886  2660  2741  1
 3887  2661  2666  1
 3888  2661  2662  1
 3889  2662  2663  1
 3890  2663  2664  1
 3891  2664  2667  1
 3892  2664  2745  1
 3893  2665  2666  1
 3894  2665  2670  1
 3895  2666  2667  1
 3896  2667  2668  1
 3897  2668  2671  1
 3898  2668  2749  1
 3899  2669  2670  1
 3900  2669  2674  1
 3901  2670  2671  1
 3902  2671  2672  1
 3903  2672  2675  1
 3904  2672  2753  1
 3905  2673  2678  1
 3906  2673  2674  1
 3907  2674  2675  1
 3908  2675  2676  1
 3909  2676  2679  1
 3910  2676  2757  1
 3911  2677  2682  1
 3912  2677  2678  1
 3913  2678  2679  1
 3914  2679  2680  1
 3915  2680  2683  1
 3916  2680  2761  1
 3917  2681  2686  1
 3918  2681  2682  1
 3919  2682  2683  1
 3920  2683  2684  1
 3921  2684  2687  1
 3922  2684  2765  1
 3923  2685  2686  1
 3924  2686  2687  1
 3925  2687  2688  1
 3926  2688  2769  1
 3927  2689  2690  1
 3928  2689  2694  1
 3929  2690  2691  1
 3930  2691  2692  1
 3931  2692  2773  1
 3932  2692  2695  1
 3933  2693  2694  1
 3934  2693  2698  1
 3935  2694  2695  1
 3936  2695  2696  1
 3937  2696  2777  1
 3938  2696  2699  1
 3939  2697  2698  1
 3940  2697  2702  1
 3941  2698  2699  1
 3942  2699  2700  1
 3943  2700  2703  1
 3944  2700  2781  1
 3945  2701  2702  1
 3946  2701  2706  1
 3947  2702  2703  1
 3948  2703  2704  1
 3949  2704  2707  1
 3950  2704  2785  1
 3951  2705  2706  1
 3952  2705  2710  1
 3953  2706  2707  1
 3954  2707  2708  1
 3955  2708  2789  1
 3956  2708  2711  1
 3957  2709  2710  1
 3958  2709  2714  1
 3959  2710  2711  1
 3960  2711  2712  1
 3961  2712  2793  1
 3962  2712  2715  1
 3963  2713  2714  1
 3964  2713  2718  1
 3965  2714  2715  1
 3966  2715  2716  1
 3967  2716  2797  1
 3968  2716  2719  1
 3969  2717  2718  1
 3970  2717  2722  1
 3971  2718  2719  1
 3972  2719  2720  1
 3973  2720  2801  1
 3974  2720  2723  1
 3975  2721  2726  1
 3976  2721  2722  1
 3977  2722  2723  1
 3978  2723  2724  1
 3979  2724  2805  1
 3980  2724  2727  1
 3981  2725  2730  1
 3982  2725  2726  1
 3983  2726  2727  1
 3984  2727  2728  1
 3985  2728  2809  1
 3986  2728  2731  1
 3987  2729  2730  1
 3988  2729  2734  1
 3989  2730  2731  1
 3990  2731  2732  1
 3991  2732  2813  1
 3992  2732  2735  1
 3993  2733  2734  1
 3994  2733  2738  1
 3995  2734  2735  1
 3996  2735  2736  1
 3997  2736  2817  1
 3998  2736  2739  1
 3999  2737  2742  1
 4000  2737  2738  1
 4001  2738  2739  1
 4002  2739  2740  1
 4003  2740  2821  1
 4004  2740  2743  1
 4005  2741  2746  1
 4006  2741  2742  1
 4007  2742  2743  1
 4008  2743  2744  1
 4009  2744  2747  1
 4010  2744  2825  1
 4011  2745  2750  1
 4012  2745  2746  1
 4013  2746  2747  1
 4014  2747  2748  1
 4015  2748  2829  1
 4016  2748  2751  1
 4017  2749  2750  1
 4018  2749  2754  1
 4019  2750  2751  1
 4020  2751  2752  1
 4021  2752  2833  1
 4022  2752  2755  1
 4023  2753  2754  1
 4024  2753  2758  1
 4025  2754  2755  1
 4026  2755  2756  1
 4027  2756  2837  1
 4028  2756  2759  1
 4029  2757  2758  1
 4030  2757  2762  1
 4031  2758  2759  1
 4032  2759  2760  1
 4033  2760  2763  1
 4034  2760  2841  1
 4035  2761  2762  1
 4036  2761  2766  1
 4037  2762  2763  1
 4038  2763  2764  1
 4039  2764  2767  1
 4040  2764  2845  1
 4041  2765  2766  1
 4042  2765  2770  1
 4043  2766  2767  1
 4044  2767  2768  1
 4045  2768  2849  1
 4046  2768  2771  1
 4047  2769  2770  1
 4048  2770  2771  1
 4049  2771  2772  1
 4050  2772  2853  1
 4051  2773  2774  1
 4052  2773  2778  1
 4053  2774  2775  1
 4054  2775  2776  1
 4055  2776  2857  1
 4056  2776  2779  1
 4057  2777  2778  1
 4058  2777  2782  1
 4059  2778  2779  1
 4060  2779  2780  1
 4061  2780  2861  1
 4062  2780  2783  1
 4063  2781  2782  1
 4064  2781  2786  1
 4065  2782  2783  1
 4066  2783  2784  1
 4067  2784  2787  1
 4068  2784  2865  1
 4069  2785  2786  1
 4070  2785  2790  1
 4071  2786  2787  1
 4072  2787  2788  1
 4073  2788  2791  1
 4074  2788  2869  1
 4075  2789  2790  1
 4076  2789  2794  1
 4077  2790  2791  1
 4078  2791  2792  1
 4079  2792  2873  1
 4080  2792  2795  1
 4081  2793  2794  1
 4082  2793  2798  1
 4083  2794  2795  1
 4084  2795  2796  1
 4085  2796  2877  1
 4086  2796  2799  1
 4087  2797  2798  1
 4088  2797  2802  1
 4089  2798  2799  1
 4090  2799  2800  1
 4091  2800  2881  1
 4092  2800  2803  1
 4093  2801  2806  1
 4094  2801  2802  1
 4095  2802  2803  1
 4096  2803  2804  1
 4097  2804  2885  1
 4098  2804  2807  1
 4099  2805  2810  1
 4100  2805  2806  1
 4101  2806  2807  1
 4102  2807  2808  1
 4103  2808  2889  1
 4104  2808  2811  1
 4105  2809  2814  1
 4106  2809  2810  1
 4107  2810  2811  1
 4108  2811  2812  1
 4109  2812  2893  1
 4110  2812  2815  1
 4111  2813  2814  1
 4112  2813  2818  1
 4113  2814  2815  1
 4114  2815  2816  1
 4115  2816  2897  1
 4116  2816  2819  1
 4117  2817  2818  1
 4118  2817  2822  1
 4119  2818  2819  1
 4120  2819  2820  1
 4121  2820  2901  1
 4122  2820  2823  1
 4123  2821  2826  1
 4124  2821  2822  1
 4125  2822  2823  1
 4126  2823  2824  1
 4127  2824  2827  1
 4128  2824  2905  1
 4129  2825  2826  1
 4130  2825  2830  1
 4131  2826  2827  1
 4132  2827  2828  1
 4133  2828  2831  1
 4134  2828  2909  1
 4135  2829  2830  1
 4136  2829  2834  1
 4137  2830  2831  1
 4138  2831  2832  1
 4139  2832  2913  1
 4140  2832  2835  1
 4141  2833  2834  1
 4142  2833  2838  1
 4143  2834  2835  1
 4144  2835  2836  1
 4145  2836  2917  1
 4146  2836  2839  1
 4147  2837  2838  1
 4148  2837  2842  1
 4149  2838  2839  1
 4150  2839  2840  1
 4151  2840  2921  1
 4152  2840  2843  1
 4153  2841  2842  1
 4154  2841  2846  1
 4155  2842  2843  1
 4156  2843  2844  1
 4157  2844  2847  1
 4158  2844  2925  1
 4159  2845  2846  1
 4160  2845  2850  1
 4161  2846  2847  1
 4162  2847  2848  1
 4163  2848  2851  1
 4164  2848  2929  1
 4165  2849  2850  1
 4166  2849  2854  1
 4167  2850  2851  1
 4168  2851  2852  1
 4169  2852  2933  1
 4170  2852  2855  1
 4171  2853  2854  1
 4172  2854  2855  1
 4173  2855  2856  1
 4174  2856  2937  1
 4175  2857  2858  1
 4176  2857  2862  1
 4177  2858  2859  1
 4178  2859  2860  1
 4179  2860  2941  1
 4180  2860  2863  1
 4181  2861  2862  1
 4182  2861  2866  1
 4183  2862  2863  1
 4184  2863  2864  1
 4185  2864  2945  1
 4186  2864  2867  1
 4187  2865  2866  1
 4188  2865  2870  1
 4189  2866  2867  1
 4190  2867  2868  1
 4191  2868  2871  1
 4192  2868  2949  1
 4193  2869  2870  1
 4194  2869  2874  1
 4195  2870  2871  1
 4196  2871  2872  1
 4197  2872  2875  1
 4198  2872  2953  1
 4199  2873  2874  1
 4200  2873  2878  1
 4201  2874  2875  1
 4202  2875  2876  1
 4203  2876  2957  1
 4204  2876  2879  1
 4205  2877  2878  1
 4206  2877  2882  1
 4207  2878  2879  1
 4208  2879  2880  1
 4209  2880  2961  1
 4210  2880  2883  1
 4211  2881  2882  1
 4212  2881  2886  1
 4213  2882  2883  1
 4214  2883  2884  1
 4215  2884  2965  1
 4216  2884  2887  1
 4217  2885  2890  1
 4218  2885  2886  1
 4219  2886  2887  1
 4220  2887  2888  1
 4221  2888  2969  1
 4222  2888  2891  1
 4223  2889  2894  1
 4224  2889  2890  1
 4225  2890  2891  1
 4226  2891  2892  1
 4227  2892  2973  1
 4228  2892  2895  1
 4229  2893  2898  1
 4230  2893  2894  1
 4231  2894  2895  1
 4232  2895  2896  1
 4233  2896  2977  1
 4234  2896  2899  1
 4235  2897  2898  1
 4236  2897  2902  1
 4237  2898  2899  1
 4238  2899  2900  1
 4239  2900  2981  1
 4240  2900  2903  1
 4241  2901  2902  1
 4242  2901  2906  1
 4243  2902  2903  1
 4244  2903  2904  1
 4245  2904  2985  1
 4246  2904  2907  1
 4247  2905  2906  1
 4248  2905  2910  1
 4249  2906  2907  1
 4250  2907  2908  1
 4251  2908  2911  1
 4252  2908  2989  1
 4253  2909  2910  1
 4254  2909  2914  1
 4255  2910  2911  1
 4256  2911  2912  1
 4257  2912  2915  1
 4258  2912  2993  1
 4259  2913  2914  1
 4260  2913  2918  1
 4261  2914  2915  1
 4262  2915  2916  1
 4263  2916  2997  1
 4264  2916  2919  1
 4265  2917  2918  1
 4266  2917  2922  1
 4267  2918  2919  1
 4268  2919  2920  1
 4269  2920  3001  1
 4270  2920  2923  1
 4271  2921  2922  1
 4272  2921  2926  1
 4273  2922  2923  1
 4274  2923  2924  1
 4275  2924  3005  1
 4276  2924  2927  1
 4277  2925  2926  1
 4278  2925  2930  1
 4279  2926  2927  1
 4280  2927  2928  1
 4281  2928  3009  1
 4282  2928  2931  1
 4283  2929  2934  1
 4284  2929  2930  1
 4285  2930  2931  1
 4286  2931  2932  1
 4287  2932  3013  1
 4288  2932  2935  1
 4289  2933  2938  1
 4290  2933  2934  1
 4291  2934  2935  1
 4292  2935  2936  1
 4293  2936  3017  1
 4294  2936  2939  1
 4295  2937  2938  1
 4296  2938  2939  1
 4297  2939  2940  1
 4298  2940  3021  1
 4299  2941  2942  1
 4300  2941  2946  1
 4301  2942  2943  1
 4302  2943  2944  1
 4303  2944  2947  1
 4304  2945  2946  1
 4305  2945  2950  1
 4306  2946  2947  1
 4307  2947  2948  1
 4308  2948  2951  1
 4309  2949  2950  1
 4310  2949  2954  1
 4311  2950  2951  1
 4312  2951  2952  1
 4313  2952  2955  1
 4314  2953  2958  1
 4315  2953  2954  1
 4316  2954  2955  1
 4317  2955  2956  1
 4318  2956  2959  1
 4319  2957  2962  1
 4320  2957  2958  1
 4321  2958  2959  1
 4322  2959  2960  1
 4323  2960  2963  1
 4324  2961  2962  1
 4325  2961  2966  1
 4326  2962  2963  1
 4327  2963  2964  1
 4328  2964  2967  1
 4329  2965  2966  1
 4330  2965  2970  1
 4331  2966  2967  1
 4332  2967  2968  1
 4333  2968  2971  1
 4334  2969  2974  1
 4335  2969  2970  1
 4336  2970  2971  1
 4337  2971  2972  1
 4338  2972  2975  1
 4339  2973  2978  1
 4340  2973  2974  1
 4341  2974  2975  1
 4342  2975  2976  1
 4343  2976  2979  1
 4344  2977  2982  1
 4345  2977  2978  1
 4346  2978  2979  1
 4347  2979  2980  1
 4348  2980  2983  1
 4349  2981  2982  1
 4350  2981  2986  1
 4351  2982  2983  1
 4352  2983  2984  1
 4353  2984  2987  1
 4354  2985  2986  1
 4355  2985  2990  1
 4356  2986  2987  1
 4357  2987  2988  1
 4358  2988  2991  1
 4359  2989  2990  1
 4360  2989  2994  1
 4361  2990  2991  1
 4362  2991  2992  1
 4363  2992  2995  1
 4364  2993  2994  1
 4365  2993  2998  1
 4366  2994  2995  1
 4367  2995  2996  1
 4368  2996  2999  1
 4369  2997  2998  1
 4370  2997  3002  1
 4371  2998  2999  1
 4372  2999  3000  1
 4373  3000  3003  1
 4374  3001  3002  1
 4375  3001  3006  1
 4376  3002  3003  1
 4377  3003  3004  1
 4378  3004  3007  1
 4379  3005  3006  1
 4380  3005  3010  1
 4381  3006  3007  1
 4382  3007  3008  1
 4383  3008  3011  1
 4384  3009  3014  1
 4385  3009  3010  1
 4386  3010  3011  1
 4387  3011  3012  1
 4388  3012  3015  1
 4389  3013  3018  1
 4390  3013  3014  1
 4391  3014  3015  1
 4392  3015  3016  1
 4393  3016  3019  1
 4394  3017  3022  1
 4395  3017  3018  1
 4396  3018  3019  1
 4397  3019  3020  1
 4398  3020  3023  1
 4399  3021  3022  1
 4400  3022  3023  1
 4401  3023  3024  1
 4402  3025  3026  1
 4403  3025  3030  1
 4404  3026  3027  1
 4405  3027  3028  1
 4406  3028  3109  1
 4407  3028  3031  1
 4408  3029  3030  1
 4409  3029  3034  1
 4410  3030  3031  1
 4411  3031  3032  1
 4412  3032  3113  1
 4413  3032  3035  1
 4414  3033  3038  1
 4415  3033  3034  1
 4416  3034  3035  1
 4417  3035  3036  1
 4418  3036  3117  1
 4419  3036  3039  1
 4420  3037  3042  1
 4421  3037  3038  1
 4422  3038  3039  1
 4423  3039  3040  1
 4424  3040  3121  1
 4425  3040  3043  1
 4426  3041  3046  1
 4427  3041  3042  1
 4428  3042  3043  1
 4429  3043  3044  1
 4430  3044  3125  1
 4431  3044  3047  1
 4432  3045  3046  1
 4433  3045  3050  1
 4434  3046  3047  1
 4435  3047  3048  1
 4436  3048  3129  1
 4437  3048  3051  1
 4438  3049  3050  1
 4439  3049  3054  1
 4440  3050  3051  1
 4441  3051  3052  1
 4442  3052  3133  1
 4443  3052  3055  1
 4444  3053  3054  1
 4445  3053  3058  1
 4446  3054  3055  1
 4447  3055  3056  1
 4448  3056  3059  1
 4449  3056  3137  1
 4450  3057  3058  1
 4451  3057  3062  1
 4452  3058  3059  1
 4453  3059  3060  1
 4454  3060  3063  1
 4455  3060  3141  1
 4456  3061  3062  1
 4457  3061  3066  1
 4458  3062  3063  1
 4459  3063  3064  1
 4460  3064  3145  1
 4461  3064  3067  1
 4462  3065  3066  1
 4463  3065  3070  1
 4464  3066  3067  1
 4465  3067  3068  1
 4466  3068  3149  1
 4467  3068  3071  1
 4468  3069  3070  1
 4469  3069  3074  1
 4470  3070  3071  1
 4471  3071  3072  1
 4472  3072  3153  1
 4473  3072  3075  1
 4474  3073  3074  1
 4475  3073  3078  1
 4476  3074  3075  1
 4477  3075  3076  1
 4478  3076  3157  1
 4479  3076  3079  1
 4480  3077  3082  1
 4481  3077  3078  1
 4482  3078  3079  1
 4483  3079  3080  1
 4484  3080  3161  1
 4485  3080  3083  1
 4486  3081  3086  1
 4487  3081  3082  1
 4488  3082  3083  1
 4489  3083  3084  1
 4490  3084  3165  1
 4491  3084  3087  1
 4492  3085  3086  1
 4493  3085  3090  1
 4494  3086  3087  1
 4495  3087  3088  1
 4496  3088  3169  1
 4497  3088  3091  1
 4498  3089  3090  1
 4499  3089  3094  1
 4500  3090  3091  1
 4501  3091  3092  1
 4502  3092  3173  1
 4503  3092  3095  1
 4504  3093  3098  1
 4505  3093  3094  1
 4506  3094  3095  1
 4507  3095  3096  1
 4508  3096  3177  1
 4509  3096  3099  1
 4510  3097  3102  1
 4511  3097  3098  1
 4512  3098  3099  1
 4513  3099  3100  1
 4514  3100  3103  1
 4515  3100  3181  1
 4516  3101  3106  1
 4517  3101  3102  1
 4518  3102  3103  1
 4519  3103  3104  1
 4520  3104  3185  1
 4521  3104  3107  1
 4522  3105  3106  1
 4523  3106  3107  1
 4524  3107  3108  1
 4525  3108  3189  1
 4526  3109  3110  1
 4527  3109  3114  1
 4528  3110  3111  1
 4529  3111  3112  1
 4530  3112  3193  1
 4531  3112  3115  1
 4532  3113  3114  1
 4533  3113  3118  1
 4534  3114  3115  1
 4535  3115  3116  1
 4536  3116  3197  1
 4537  3116  3119  1
 4538  3117  3122  1
 4539  3117  3118  1
 4540  3118  3119  1
 4541  3119  3120  1
 4542  3120  3201  1
 4543  3120  3123  1
 4544  3121  3126  1
 4545  3121  3122  1
 4546  3122  3123  1
 4547  3123  3124  1
 4548  3124  3127  1
 4549  3124  3205  1
 4550  3125  3130  1
 4551  3125  3126  1
 4552  3126  3127  1
 4553  3127  3128  1
 4554  3128  3209  1
 4555  3128  3131  1
 4556  3129  3130  1
 4557  3129  3134  1
 4558  3130  3131  1
 4559  3131  3132  1
 4560  3132  3213  1
 4561  3132  3135  1
 4562  3133  3134  1
 4563  3133  3138  1
 4564  3134  3135  1
 4565  3135  3136  1
 4566  3136  3217  1
 4567  3136  3139  1
 4568  3137  3138  1
 4569  3137  3142  1
 4570  3138  3139  1
 4571  3139  3140  1
 4572  3140  3143  1
 4573  3140  3221  1
 4574  3141  3142  1
 4575  3141  3146  1
 4576  3142  3143  1
 4577  3143  3144  1
 4578  3144  3147  1
 4579  3144  3225  1
 4580  3145  3146  1
 4581  3145  3150  1
 4582  3146  3147  1
 4583  3147  3148  1
 4584  3148  3229  1
 4585  3148  3151  1
 4586  3149  3150  1
 4587  3149  3154  1
 4588  3150  3151  1
 4589  3151  3152  1
 4590  3152  3233  1
 4591  3152  3155  1
 4592  3153  3154  1
 4593  3153  3158  1
 4594  3154  3155  1
 4595  3155  3156  1
 4596  3156  3237  1
 4597  3156  3159  1
 4598  3157  3162  1
 4599  3157  3158  1
 4600  3158  3159  1
 4601  3159  3160  1
 4602  3160  3241  1
 4603  3160  3163  1
 4604  3161  3166  1
 4605  3161  3162  1
 4606  3162  3163  1
 4607  3163  3164  1
 4608  3164  3245  1
 4609  3164  3167  1
 4610  3165  3170  1
 4611  3165  3166  1
 4612  3166  3167  1
 4613  3167  3168  1
 4614  3168  3249  1
 4615  3168  3171  1
 4616  3169  3170  1
 4617  3169  3174  1
 4618  3170  3171  1
 4619  3171  3172  1
 4620  3172  3253  1
 4621  3172  3175  1
 4622  3173  3174  1
 4623  3173  3178  1
 4624  3174  3175  1
 4625  3175  3176  1
 4626  3176  3257  1
 4627  3176  3179  1
 4628  3177  3182  1
 4629  3177  3178  1
 4630  3178  3179  1
 4631  3179  3180  1
 4632  3180  3183  1
 4633  3180  3261  1
 4634  3181  3182  1
 4635  3181  3186  1
 4636  3182  3183  1
 4637  3183  3184  1
 4638  3184  3187  1
 4639  3184  3265  1
 4640  3185  3186  1
 4641  3185  3190  1
 4642  3186  3187  1
 4643  3187  3188  1
 4644  3188  3269  1
 4645  3188  3191  1
 4646  3189  3190  1
 4647  3190  3191  1
 4648  3191  3192  1
 4649  3192  3273  1
 4650  3193  3194  1
 4651  3193  3198  1
 4652  3194  3195  1
 4653  3195  3196  1
 4654  3196  3277  1
 4655  3196  3199  1
 4656  3197  3198  1
 4657  3197  3202  1
 4658  3198  3199  1
 4659  3199  3200  1
 4660  3200  3281  1
 4661  3200  3203  1
 4662  3201  3206  1
 4663  3201  3202  1
 4664  3202  3203  1
 4665  3203  3204  1
 4666  3204  3207  1
 4667  3204  3285  1
 4668  3205  3206  1
 4669  3205  3210  1
 4670  3206  3207  1
 4671  3207  3208  1
 4672  3208  3211  1
 4673  3208  3289  1
 4674  3209  3210  1
 4675  3209  3214  1
 4676  3210  3211  1
 4677  3211  3212  1
 4678  3212  3293  1
 4679  3212  3215  1
 4680  3213  3214  1
 4681  3213  3218  1
 4682  3214  3215  1
 4683  3215  3216  1
 4684  3216  3297  1
 4685  3216  3219  1
 4686  3217  3218  1
 4687  3217  3222  1
 4688  3218  3219  1
 4689  3219  3220  1
 4690  3220  3301  1
 4691  3220  3223  1
 4692  3221  3222  1
 4693  3221  3226  1
 4694  3222  3223  1
 4695  3223  3224  1
 4696  3224  3227  1
 4697  3224  3305  1
 4698  3225  3226  1
 4699  3225  3230  1
 4700  3226  3227  1
 4701  3227  3228  1
 4702  3228  3231  1
 4703  3228  3309  1
 4704  3229  3230  1
 4705  3229  3234  1
 4706  3230  3231  1
 4707  3231  3232  1
 4708  3232  3313  1
 4709  3232  3235  1
 4710  3233  3234  1
 4711  3233  3238  1
 4712  3234  3235  1
 4713  3235  3236  1
 4714  3236  3317  1
 4715  3236  3239  1
 4716  3237  3238  1
 4717  3237  3242  1
 4718  3238  3239  1
 4719  3239  3240  1
 4720  3240  3321  1
 4721  3240  3243  1
 4722  3241  3246  1
 4723  3241  3242  1
 4724  3242  3243  1
 4725  3243  3244  1
 4726  3244  3325  1
 4727  3244  3247  1
 4728  3245  3250  1
 4729  3245  3246  1
 4730  3246  3247  1
 4731  3247  3248  1
 4732  3248  3329  1
 4733  3248  3251  1
 4734  3249  3254  1
 4735  3249  3250  1
 4736  3250  3251  1
 4737  3251  3252  1
 4738  3252  3333  1
 4739  3252  3255  1
 4740  3253  3254  1
 4741  3253  3258  1
 4742  3254  3255  1
 4743  3255  3256  1
 4744  3256  3337  1
 4745  3256  3259  1
 4746  3257  3258  1
 4747  3257  3262  1
 4748  3258  3259  1
 4749  3259  3260  1
 4750  3260  3341  1
 4751  3260  3263  1
 4752  3261  3262  1
 4753  3261  3266  1
 4754  3262  3263  1
 4755  3263  3264  1
 4756  3264  3267  1
 4757  3264  3345  1
 4758  3265  3266  1
 4759  3265  3270  1
 4760  3266  3267  1
 4761  3267  3268  1
 4762  3268  3271  1
 4763  3268  3349  1
 4764  3269  3270  1
 4765  3269  3274  1
 4766  3270  3271  1
 4767  3271  3272  1
 4768  3272  3353  1
 4769  3272  3275  1
 4770  3273  3274  1
 4771  3274  3275  1
 4772  3275  3276  1
 4773  3276  3357  1
 4774  3277  3278  1
 4775  3277  3282  1
 4776  3278  3279  1
 4777  3279  3280  1
 4778  3280  3361  1
 4779  3280  3283  1
 4780  3281  3282  1
 4781  3281  3286  1
 4782  3282  3283  1
 4783  3283  3284  1
 4784  3284  3365  1
 4785  3284  3287  1
 4786  3285  3286  1
 4787  3285  3290  1
 4788  3286  3287  1
 4789  3287  3288  1
 4790  3288  3291  1
 4791  3288  3369  1
 4792  3289  3290  1
 4793  3289  3294  1
 4794  3290  3291  1
 4795  3291  3292  1
 4796  3292  3295  1
 4797  3292  3373  1
 4798  3293  3294  1
 4799  3293  3298  1
 4800  3294  3295  1
 4801  3295  3296  1
 4802  3296  3377  1
 4803  3296  3299  1
 4804  3297  3298  1
 4805  3297  3302  1
 4806  3298  3299  1
 4807  3299  3300  1
 4808  3300  3381  1
 4809  3300  3303  1
 4810  3301  3302  1
 4811  3301  3306  1
 4812  3302  3303  1
 4813  3303  3304  1
 4814  3304  3385  1
 4815  3304  3307  1
 4816  3305  3306  1
 4817  3305  3310  1
 4818  3306  3307  1
 4819  3307  3308  1
 4820  3308  3389  1
 4821  3308  3311  1
 4822  3309  3314  1
 4823  3309  3310  1
 4824  3310  3311  1
 4825  3311  3312  1
 4826  3312  3393  1
 4827  3312  3315  1
 4828  3313  3318  1
 4829  3313  3314  1
 4830  3314  3315  1
 4831  3315  3316  1
 4832  3316  3397  1
 4833  3316  3319  1
 4834  3317  3318  1
 4835  3317  3322  1
 4836  3318  3319  1
 4837  3319  3320  1
 4838  3320  3401  1
 4839  3320  3323  1
 4840  3321  3322  1
 4841  3321  3326  1
 4842  3322  3323  1
 4843  3323  3324  1
 4844  3324  3405  1
 4845  3324  3327  1
 4846  3325  3330  1
 4847  3325  3326  1
 4848  3326  3327  1
 4849  3327  3328  1
 4850  3328  3409  1
 4851  3328  3331  1
 4852  3329  3334  1
 4853  3329  3330  1
 4854  3330  3331  1
 4855  3331  3332  1
 4856  3332  3335  1
 4857  3332  3413  1
 4858  3333  3338  1
 4859  3333  3334  1
 4860  3334  3335  1
 4861  3335  3336  1
 4862  3336  3417  1
 4863  3336  3339  1
 4864  3337  3338  1
 4865  3337  3342  1
 4866  3338  3339  1
 4867  3339  3340  1
 4868  3340  3421  1
 4869  3340  3343  1
 4870  3341  3342  1
 4871  3341  3346  1
 4872  3342  3343  1
 4873  3343  3344  1
 4874  3344  3425  1
 4875  3344  3347  1
 4876  3345  3346  1
 4877  3345  3350  1
 4878  3346  3347  1
 4879  3347  3348  1
 4880  3348  3351  1
 4881  3348  3429  1
 4882  3349  3350  1
 4883  3349  3354  1
 4884  3350  3351  1
 4885  3351  3352  1
 4886  3352  3355  1
 4887  3352  3433  1
 4888  3353  3354  1
 4889  3353  3358  1
 4890  3354  3355  1
 4891  3355  3356  1
 4892  3356  3437  1
 4893  3356  3359  1
 4894  3357  3358  1
 4895  3358  3359  1
 4896  3359  3360  1
 4897  3360  3441  1
 4898  3361  3362  1
 4899  3361  3366  1
 4900  3362  3363  1
 4901  3363  3364  1
 4902  3364  3367  1
 4903  3364  3445  1
 4904  3365  3366  1
 4905  3365  3370  1
 4906  3366  3367  1
 4907  3367  3368  1
 4908  3368  3371  1
 4909  3368  3449  1
 4910  3369  3374  1
 4911  3369  3370  1
 4912  3370  3371  1
 4913  3371  3372  1
 4914  3372  3375  1
 4915  3372  3453  1
 4916  3373  3378  1
 4917  3373  3374  1
 4918  3374  3375  1
 4919  3375  3376  1
 4920  3376  3379  1
 4921  3376  3457  1
 4922  3377  3382  1
 4923  3377  3378  1
 4924  3378  3379  1
 4925  3379  3380  1
 4926  3380  3383  1
 4927  3380  3461  1
 4928  3381  3382  1
 4929  3381  3386  1
 4930  3382  3383  1
 4931  3383  3384  1
 4932  3384  3387  1
 4933  3384  3465  1
 4934  3385  3386  1
 4935  3385  3390  1
 4936  3386  3387  1
 4937  3387  3388  1
 4938  3388  3391  1
 4939  3388  3469  1
 4940  3389  3394  1
 4941  3389  3390  1
 4942  3390  3391  1
 4943  3391  3392  1
 4944  3392  3395  1
 4945  3392  3473  1
 4946  3393  3398  1
 4947  3393  3394  1
 4948  3394  3395  1
 4949  3395  3396  1
 4950  3396  3399  1
 4951  3396  3477  1
 4952  3397  3402  1
 4953  3397  3398  1
 4954  3398  3399  1
 4955  3399  3400  1
 4956  3400  3403  1
 4957  3400  3481  1
 4958  3401  3402  1
 4959  3401  3406  1
 4960  3402  3403  1
 4961  3403  3404  1
 4962  3404  3407  1
 4963  3404  3485  1
 4964  3405  3406  1
 4965  3405  3410  1
 4966  3406  3407  1
 4967  3407  3408  1
 4968  3408  3411  1
 4969  3408  3489  1
 4970  3409  3414  1
 4971  3409  3410  1
 4972  3410  3411  1
 4973  3411  3412  1
 4974  3412  3415  1
 4975  3412  3493  1
 4976  3413  3418  1
 4977  3413  3414  1
 4978  3414  3415  1
 4979  3415  3416  1
 4980  3416  3419  1
 4981  3416  3497  1
 4982  3417  3422  1
 4983  3417  3418  1
 4984  3418  3419  1
 4985  3419  3420  1
 4986  3420  3423  1
 4987  3420  3501  1
 4988  3421  3422  1
 4989  3421  3426  1
 4990  3422  3423  1
 4991  3423  3424  1
 4992  3424  3427  1
 4993  3424  3505  1
 4994  3425  3426  1
 4995  3425  3430  1
 4996  3426  3427  1
 4997  3427  3428  1
 4998  3428  3431  1
 4999  3428  3509  1
 5000  3429  3434  1
 5001  3429  3430  1
 5002  3430  3431  1
 5003  3431  3432  1
 5004  3432  3435  1
 5005  3432  3513  1
 5006  3433  3438  1
 5007  3433  3434  1
 5008  3434  3435  1
 5009  3435  3436  1
 5010  3436  3439  1
 5011  3436  3517  1
 5012  3437  3438  1
 5013  3437  3442  1
 5014  3438  3439  1
 5015  3439  3440  1
 5016  3440  3443  1
 5017  3440  3521  1
 5018  3441  3442  1
 5019  3442  3443  1
 5020  3443  3444  1
 5021  3444  3525  1
 5022  3445  3446  1
 5023  3445  3450  1
 5024  3446  3447  1
 5025  3447  3448  1
 5026  3448  3451  1
 5027  3448  3529  1
 5028  3449  3450  1
 5029  3449  3454  1
 5030  3450  3451  1
 5031  3451  3452  1
 5032  3452  3455  1
 5033  3452  3533  1
 5034  3453  3458  1
 5035  3453  3454  1
 5036  3454  3455  1
 5037  3455  3456  1
 5038  3456  3459  1
 5039  3456  3537  1
 5040  3457  3462  1
 5041  3457  3458  1
 5042  3458  3459  1
 5043  3459  3460  1
 5044  3460  3463  1
 5045  3460  3541  1
 5046  3461  3462  1
 5047  3461  3466  1
 5048  3462  3463  1
 5049  3463  3464  1
 5050  3464  3467  1
 5051  3464  3545  1
 5052  3465  3466  1
 5053  3465  3470  1
 5054  3466  3467  1
 5055  3467  3468  1
 5056  3468  3471  1
 5057  3468  3549  1
 5058  3469  3470  1
 5059  3469  3474  1
 5060  3470  3471  1
 5061  3471  3472  1
 5062  3472  3475  1
 5063  3472  3553  1
 5064  3473  3478  1
 5065  3473  3474  1
 5066  3474  3475  1
 5067  3475  3476  1
 5068  3476  3479  1
 5069  3476  3557  1
 5070  3477  3482  1
 5071  3477  3478  1
 5072  3478  3479  1
 5073  3479  3480  1
 5074  3480  3483  1
 5075  3480  3561  1
 5076  3481  3486  1
 5077  3481  3482  1
 5078  3482  3483  1
 5079  3483  3484  1
 5080  3484  3487  1
 5081  3484  3565  1
 5082  3485  3486  1
 5083  3485  3490  1
 5084  3486  3487  1
 5085  3487  3488  1
 5086  3488  3491  1
 5087  3488  3569  1
 5088  3489  3490  1
 5089  3489  3494  1
 5090  3490  3491  1
 5091  3491  3492  1
 5092  3492  3495  1
 5093  3492  3573  1
 5094  3493  3498  1
 5095  3493  3494  1
 5096  3494  3495  1
 5097  3495  3496  1
 5098  3496  3499  1
 5099  3496  3577  1
 5100  3497  3502  1
 5101  3497  3498  1
 5102  3498  3499  1
 5103  3499  3500  1
 5104  3500  3503  1
 5105  3500  3581  1
 5106  3501  3506  1
 5107  3501  3502  1
 5108  3502  3503  1
 5109  3503  3504  1
 5110  3504  3507  1
 5111  3504  3585  1
 5112  3505  3506  1
 5113  3505  3510  1
 5114  3506  3507  1
 5115  3507  3508  1
 5116  3508  3511  1
 5117  3508  3589  1
 5118  3509  3510  1
 5119  3509  3514  1
 5120  3510  3511  1
 5121  3511  3512  1
 5122  3512  3515  1
 5123  3512  3593  1
 5124  3513  3514  1
 5125  3513  3518  1
 5126  3514  3515  1
 5127  3515  3516  1
 5128  3516  3519  1
 5129  3516  3597  1
 5130  3517  3522  1
 5131  3517  3518  1
 5132  3518  3519  1
 5133  3519  3520  1
 5134  3520  3523  1
 5135  3520  3601  1
 5136  3521  3526  1
 5137  3521  3522  1
 5138  3522  3523  1
 5139  3523  3524  1
 5140  3524  3527  1
 5141  3524  3605  1
 5142  3525  3526  1
 5143  3526  3527  1
 5144  3527  3528  1
 5145  3528  3609  1
 5146  3529  3530  1
 5147  3529  3534  1
 5148  3530  3531  1
 5149  3531  3532  1
 5150  3532  3535  1
 5151  3532  3613  1
 5152  3533  3534  1
 5153  3533  3538  1
 5154  3534  3535  1
 5155  3535  3536  1
 5156  3536  3539  1
 5157  3536  3617  1
 5158  3537  3538  1
 5159  3537  3542  1
 5160  3538  3539  1
 5161  3539  3540  1
 5162  3540  3543  1
 5163  3540  3621  1
 5164  3541  3546  1
 5165  3541  3542  1
 5166  3542  3543  1
 5167  3543  3544  1
 5168  3544  3547  1
 5169  3544  3625  1
 5170  3545  3550  1
 5171  3545  3546  1
 5172  3546  3547  1
 5173  3547  3548  1
 5174  3548  3551  1
 5175  3548  3629  1
 5176  3549  3550  1
 5177  3549  3554  1
 5178  3550  3551  1
 5179  3551  3552  1
 5180  3552  3555  1
 5181  3552  3633  1
 5182  3553  3554  1
 5183  3553  3558  1
 5184  3554  3555  1
 5185  3555  3556  1
 5186  3556  3559  1
 5187  3556  3637  1
 5188  3557  3562  1
 5189  3557  3558  1
 5190  3558  3559  1
 5191  3559  3560  1
 5192  3560  3563  1
 5193  3560  3641  1
 5194  3561  3566  1
 5195  3561  3562  1
 5196  3562  3563  1
 5197  3563  3564  1
 5198  3564  3567  1
 5199  3564  3645  1
 5200  3565  3570  1
 5201  3565  3566  1
 5202  3566  3567  1
 5203  3567  3568  1
 5204  3568  3571  1
 5205  3568  3649  1
 5206  3569  3570  1
 5207  3569  3574  1
 5208  3570  3571  1
 5209  3571  3572  1
 5210  3572  3575  1
 5211  3572  3653  1
 5212  3573  3574  1
 5213  3573  3578  1
 5214  3574  3575  1
 5215  3575  3576  1
 5216  3576  3579  1
 5217  3576  3657  1
 5218  3577  3582  1
 5219  3577  3578  1
 5220  3578  3579  1
 5221  3579  3580  1
 5222  3580  3583  1
 5223  3580  3661  1
 5224  3581  3586  1
 5225  3581  3582  1
 5226  3582  3583  1
 5227  3583  3584  1
 5228  3584  3587  1
 5229  3584  3665  1
 5230  3585  3590  1
 5231  3585  3586  1
 5232  3586  3587  1
 5233  3587  3588  1
 5234  3588  3591  1
 5235  3588  3669  1
 5236  3589  3590  1
 5237  3589  3594  1
 5238  3590  3591  1
 5239  3591  3592  1
 5240  3592  3595  1
 5241  3592  3673  1
 5242  3593  3594  1
 5243  3593  3598  1
 5244  3594  3595  1
 5245  3595  3596  1
 5246  3596  3599  1
 5247  3596  3677  1
 5248  3597  3602  1
 5249  3597  3598  1
 5250  3598  3599  1
 5251  3599  3600  1
 5252  3600  3603  1
 5253  3600  3681  1
 5254  3601  3606  1
 5255  3601  3602  1
 5256  3602  3603  1
 5257  3603  3604  1
 5258  3604  3607  1
 5259  3604  3685  1
 5260  3605  3610  1
 5261  3605  3606  1
 5262  3606  3607  1
 5263  3607  3608  1
 5264  3608  3611  1
 5265  3608  3689  1
 5266  3609  3610  1
 5267  3610  3611  1
 5268  3611  3612  1
 5269  3612  3693  1
 5270  3613  3614  1
 5271  3613  3618  1
 5272  3614  3615  1
 5273  3615  3616  1
 5274  3616  3619  1
 5275  3616  3697  1
 5276  3617  3618  1
 5277  3617  3622  1
 5278  3618  3619  1
 5279  3619  3620  1
 5280  3620  3623  1
 5281  3620  3701  1
 5282  3621  3626  1
 5283  3621  3622  1
 5284  3622  3623  1
 5285  3623  3624  1
 5286  3624  3627  1
 5287  3624  3705  1
 5288  3625  3630  1
 5289  3625  3626  1
 5290  3626  3627  1
 5291  3627  3628  1
 5292  3628  3631  1
 5293  3628  3709  1
 5294  3629  3634  1
 5295  3629  3630  1
 5296  3630  3631  1
 5297  3631  3632  1
 5298  3632  3635  1
 5299  3632  3713  1
 5300  3633  3634  1
 5301  3633  3638  1
 5302  3634  3635  1
 5303  3635  3636  1
 5304  3636  3639  1
 5305  3636  3717  1
 5306  3637  3638  1
 5307  3637  3642  1
 5308  3638  3639  1
 5309  3639  3640  1
 5310  3640  3643  1
 5311  3640  3721  1
 5312  3641  3646  1
 5313  3641  3642  1
 5314  3642  3643  1
 5315  3643  3644  1
 5316  3644  3647  1
 5317  3644  3725  1
 5318  3645  3650  1
 5319  3645  3646  1
 5320  3646  3647  1
 5321  3647  3648  1
 5322  3648  3651  1
 5323  3648  3729  1
 5324  3649  3654  1
 5325  3649  3650  1
 5326  3650  3651  1
 5327  3651  3652  1
 5328  3652  3655  1
 5329  3652  3733  1
 5330  3653  3654  1
 5331  3653  3658  1
 5332  3654  3655  1
 5333  3655  3656  1
 5334  3656  3659  1
 5335  3656  3737  1
 5336  3657  3658  1
 5337  3657  3662  1
 5338  3658  3659  1
 5339  3659  3660  1
 5340  3660  3663  1
 5341  3660  3741  1
 5342  3661  3666  1
 5343  3661  3662  1
 5344  3662  3663  1
 5345  3663  3664  1
 5346  3664  3667  1
 5347  3664  3745  1
 5348  3665  3670  1
 5349  3665  3666  1
 5350  3666  3667  1
 5351  3667  3668  1
 5352  3668  3671  1
 5353  3668  3749  1
 5354  3669  3670  1
 5355  3669  3674  1
 5356  3670  3671  1
 5357  3671  3672  1
 5358  3672  3675  1
 5359  3672  3753  1
 5360  3673  3674  1
 5361  3673  3678  1
 5362  3674  3675  1
 5363  3675  3676  1
 5364  3676  3679  1
 5365  3676  3757  1
 5366  3677  3678  1
 5367  3677  3682  1
 5368  3678  3679  1
 5369  3679  3680  1
 5370  3680  3683  1
 5371  3680  3761  1
 5372  3681  3686  1
 5373  3681  3682  1
 5374  3682  3683  1
 5375  3683  3684  1
 5376  3684  3687  1
 5377  3684  3765  1
 5378  3685  3690  1
 5379  3685  3686  1
 5380  3686  3687  1
 5381  3687  3688  1
 5382  3688  3691  1
 5383  3688  3769  1
 5384  3689  3694  1
 5385  3689  3690  1
 5386  3690  3691  1
 5387  3691  3692  1
 5388  3692  3695  1
 5389  3692  3773  1
 5390  3693  3694  1
 5391  3694  3695  1
 5392  3695  3696  1
 5393  3696  3777  1
 5394  3697  3698  1
 5395  3697  3702  1
 5396  3698  3699  1
 5397  3699  3700  1
 5398  3700  3703  1
 5399  3700  3781  1
 5400  3701  3702  1
 5401  3701  3706  1
 5402  3702  3703  1
 5403  3703  3704  1
 5404  3704  3707  1
 5405  3704  3785  1
 5406  3705  3710  1
 5407  3705  3706  1
 5408  3706  3707  1
 5409  3707  3708  1
 5410  3708  3711  1
 5411  3708  3789  1
 5412  3709  3714  1
 5413  3709  3710  1
 5414  3710  3711  1
 5415  3711  3712  1
 5416  3712  3715  1
 5417  3712  3793  1
 5418  3713  3718  1
 5419  3713  3714  1
 5420  3714  3715  1
 5421  3715  3716  1
 5422  3716  3719  1
 5423  3716  3797  1
 5424  3717  3718  1
 5425  3717  3722  1
 5426  3718  3719  1
 5427  3719  3720  1
 5428  3720  3723  1
 5429  3720  3801  1
 5430  3721  3722  1
 5431  3721  3726  1
 5432  3722  3723  1
 5433  3723  3724  1
 5434  3724  3727  1
 5435  3724  3805  1
 5436  3725  3730  1
 5437  3725  3726  1
 5438  3726  3727  1
 5439  3727  3728  1
 5440  3728  3731  1
 5441  3728  3809  1
 5442  3729  3734  1
 5443  3729  3730  1
 5444  3730  3731  1
 5445  3731  3732  1
 5446  3732  3735  1
 5447  3732  3813  1
 5448  3733  3738  1
 5449  3733  3734  1
 5450  3734  3735  1
 5451  3735  3736  1
 5452  3736  3739  1
 5453  3736  3817  1
 5454  3737  3738  1
 5455  3737  3742  1
 5456  3738  3739  1
 5457  3739  3740  1
 5458  3740  3743  1
 5459  3740  3821  1
 5460  3741  3742  1
 5461  3741  3746  1
 5462  3742  3743  1
 5463  3743  3744  1
 5464  3744  3747  1
 5465  3744  3825  1
 5466  3745  3746  1
 5467  3745  3750  1
 5468  3746  3747  1
 5469  3747  3748  1
 5470  3748  3751  1
 5471  3748  3829  1
 5472  3749  3754  1
 5473  3749  3750  1
 5474  3750  3751  1
 5475  3751  3752  1
 5476  3752  3755  1
 5477  3752  3833  1
 5478  3753  3758  1
 5479  3753  3754  1
 5480  3754  3755  1
 5481  3755  3756  1
 5482  3756  3759  1
 5483  3756  3837  1
 5484  3757  3758  1
 5485  3757  3762  1
 5486  3758  3759  1
 5487  3759  3760  1
 5488  3760  3763  1
 5489  3760  3841  1
 5490  3761  3762  1
 5491  3761  3766  1
 5492  3762  3763  1
 5493  3763  3764  1
 5494  3764  3767  1
 5495  3764  3845  1
 5496  3765  3770  1
 5497  3765  3766  1
 5498  3766  3767  1
 5499  3767  3768  1
 5500  3768  3771  1
 5501  3768  3849  1
 5502  3769  3774  1
 5503  3769  3770  1
 5504  3770  3771  1
 5505  3771  3772  1
 5506  3772  3775  1
 5507  3772  3853  1
 5508  3773  3778  1
 5509  3773  3774  1
 5510  3774  3775  1
 5511  3775  3776  1
 5512  3776  3779  1
 5513  3776  3857  1
 5514  3777  3778  1
 5515  3778  3779  1
 5516  3779  3780  1
 5517  3780  3861  1
 5518  3781  3782  1
 5519  3781  3786  1
 5520  3782  3783  1
 5521  3783  3784  1
 5522  3784  3787  1
 5523  3784  3865  1
 5524  3785  3786  1
 5525  3785  3790  1
 5526  3786  3787  1
 5527  3787  3788  1
 5528  3788  3791  1
 5529  3788  3869  1
 5530  3789  3794  1
 5531  3789  3790  1
 5532  3790  3791  1
 5533  3791  3792  1
 5534  3792  3795  1
 5535  3792  3873  1
 5536  3793  3798  1
 5537  3793  3794  1
 5538  3794  3795  1
 5539  3795  3796  1
 5540  3796  3799  1
 5541  3796  3877  1
 5542  3797  3802  1
 5543  3797  3798  1
 5544  3798  3799  1
 5545  3799  3800  1
 5546  3800  3803  1
 5547  3800  3881  1
 5548  3801  3802  1
 5549  3801  3806  1
 5550  3802  3803  1
 5551  3803  3804  1
 5552  3804  3807  1
 5553  3804  3885  1
 5554  3805  3806  1
 5555  3805  3810  1
 5556  3806  3807  1
 5557  3807  3808  1
 5558  3808  3811  1
 5559  3808  3889  1
 5560  3809  3814  1
 5561  3809  3810  1
 5562  3810  3811  1
 5563  3811  3812  1
 5564  3812  3815  1
 5565  3812  3893  1
 5566  3813  3818  1
 5567  3813  3814  1
 5568  3814  3815  1
 5569  3815  3816  1
 5570  3816  3819  1
 5571  3816  3897  1
 5572  3817  3822  1
 5573  3817  3818  1
 5574  3818  3819  1
 5575  3819  3820  1
 5576  3820  3823  1
 5577  3820  3901  1
 5578  3821  3822  1
 5579  3821  3826  1
 5580  3822  3823  1
 5581  3823  3824  1
 5582  3824  3827  1
 5583  3824  3905  1
 5584  3825  3826  1
 5585  3825  3830  1
 5586  3826  3827  1
 5587  3827  3828  1
 5588  3828  3831  1
 5589  3828  3909  1
 5590  3829  3834  1
 5591  3829  3830  1
 5592  3830  3831  1
 5593  3831  3832  1
 5594  3832  3835  1
 5595  3832  3913  1
 5596  3833  3838  1
 5597  3833  3834  1
 5598  3834  3835  1
 5599  3835  3836  1
 5600  3836  3839  1
 5601  3836  3917  1
 5602  3837  3842  1
 5603  3837  3838  1
 5604  3838  3839  1
 5605  3839  3840  1
 5606  3840  3843  1
 5607  3840  3921  1
 5608  3841  3842  1
 5609  3841  3846  1
 5610  3842  3843  1
 5611  3843  3844  1
 5612  3844  3847  1
 5613  3844  3925  1
 5614  3845  3846  1
 5615  3845  3850  1
 5616  3846  3847  1
 5617  3847  3848  1
 5618  3848  3851  1
 5619  3848  3929  1
 5620  3849  3854  1
 5621  3849  3850  1
 5622  3850  3851  1
 5623  3851  3852  1
 5624  3852  3855  1
 5625  3852  3933  1
 5626  3853  3858  1
 5627  3853  3854  1
 5628  3854  3855  1
 5629  3855  3856  1
 5630  3856  3859  1
 5631  3856  3937  1
 5632  3857  3862  1
 5633  3857  3858  1
 5634  3858  3859  1
 5635  3859  3860  1
 5636  3860  3863  1
 5637  3860  3941  1
 5638  3861  3862  1
 5639  3862  3863  1
 5640  3863  3864  1
 5641  3864  3945  1
 5642  3865  3866  1
 5643  3865  3870  1
 5644  3866  3867  1
 5645  3867  3868  1
 5646  3868  3871  1
 5647  3868  3949  1
 5648  3869  3870  1
 5649  3869  3874  1
 5650  3870  3871  1
 5651  3871  3872  1
 5652  3872  3875  1
 5653  3872  3953  1
 5654  3873  3878  1
 5655  3873  3874  1
 5656  3874  3875  1
 5657  3875  3876  1
 5658  3876  3879  1
 5659  3876  3957  1
 5660  3877  3882  1
 5661  3877  3878  1
 5662  3878  3879  1
 5663  3879  3880  1
 5664  3880  3883  1
 5665  3880  3961  1
 5666  3881  3886  1
 5667  3881  3882  1
 5668  3882  3883  1
 5669  3883  3884  1
 5670  3884  3887  1
 5671  3884  3965  1
 5672  3885  3886  1
 5673  3885  3890  1
 5674  3886  3887  1
 5675  3887  3888  1
 5676  3888  3891  1
 5677  3888  3969  1
 5678  3889  3890  1
 5679  3889  3894  1
 5680  3890  3891  1
 5681  3891  3892  1
 5682  3892  3895  1
 5683  3892  3973  1
 5684  3893  3898  1
 5685  3893  3894  1
 5686  3894  3895  1
 5687  3895  3896  1
 5688  3896  3899  1
 5689  3896  3977  1
 5690  3897  3902  1
 5691  3897  3898  1
 5692  3898  3899  1
 5693  3899  3900  1
 5694  3900  3903  1
 5695  3900  3981  1
 5696  3901  3902  1
 5697  3901  3906  1
 5698  3902  3903  1
 5699  3903  3904  1
 5700  3904  3907  1
 5701  3904  3985  1
 5702  3905  3906  1
 5703  3905  3910  1
 5704  3906  3907  1
 5705  3907  3908  1
 5706  3908  3911  1
 5707  3908  3989  1
 5708  3909  3910  1
 5709  3909  3914  1
 5710  3910  3911  1
 5711  3911  3912  1
 5712  3912  3915  1
 5713  3912  3993  1
 5714  3913  3918  1
 5715  3913  3914  1
 5716  3914  3915  1
 5717  3915  3916  1
 5718  3916  3919  1
 5719  3916  3997  1
 5720  3917  3922  1
 5721  3917  3918  1
 5722  3918  3919  1
 5723  3919  3920  1
 5724  3920  3923  1
 5725  3920  4001  1
 5726  3921  3926  1
 5727  3921  3922  1
 5728  3922  3923  1
 5729  3923  3924  1
 5730  3924  3927  1
 5731  3924  4005  1
 5732  3925  3926  1
 5733  3925  3930  1
 5734  3926  3927  1
 5735  3927  3928  1
 5736  3928  3931  1
 5737  3928  4009  1
 5738  3929  3930  1
 5739  3929  3934  1
 5740  3930  3931  1
 5741  3931  3932  1
 5742  3932  3935  1
 5743  3932  4013  1
 5744  3933  3938  1
 5745  3933  3934  1
 5746  3934  3935  1
 5747  3935  3936  1
 5748  3936  3939  1
 5749  3936  4017  1
 5750  3937  3942  1
 5751  3937  3938  1
 5752  3938  3939  1
 5753  3939  3940  1
 5754  3940  3943  1
 5755  3940  4021  1
 5756  3941  3946  1
 5757  3941  3942  1
 5758  3942  3943  1
 5759  3943  3944  1
 5760  3944  3947  1
 5761  3944  4025  1
 5762  3945  3946  1
 5763  3946  3947  1
 5764  3947  3948  1
 5765  3948  4029  1
 5766  3949  3950  1
 5767  3949  3954  1
 5768  3950  3951  1
 5769  3951  3952  1
 5770  3952  3955  1
 5771  3953  3954  1
 5772  3953  3958  1
 5773  3954  3955  1
 5774  3955  3956  1
 5775  3956  3959  1
 5776  3957  3962  1
 5777  3957  3958  1
 5778  3958  3959  1
 5779  3959  3960  1
 5780  3960  3963  1
 5781  3961  3966  1
 5782  3961  3962  1
 5783  3962  3963  1
 5784  3963  3964  1
 5785  3964  3967  1
 5786  3965  3970  1
 5787  3965  3966  1
 5788  3966  3967  1
 5789  3967  3968  1
 5790  3968  3971  1
 5791  3969  3970  1
 5792  3969  3974  1
 5793  3970  3971  1
 5794  3971  3972  1
 5795  3972  3975  1
 5796  3973  3974  1
 5797  3973  3978  1
 5798  3974  3975  1
 5799  3975  3976  1
 5800  3976  3979  1
 5801  3977  3978  1
 5802  3977  3982  1
 5803  3978  3979  1
 5804  3979  3980  1
 5805  3980  3983  1
 5806  3981  3986  1
 5807  3981  3982  1
 5808  3982  3983  1
 5809  3983  3984  1
 5810  3984  3987  1
 5811  3985  3990  1
 5812  3985  3986  1
 5813  3986  3987  1
 5814  3987  3988  1
 5815  3988  3991  1
 5816  3989  3990  1
 5817  3989  3994  1
 5818  3990  3991  1
 5819  3991  3992  1
 5820  3992  3995  1
 5821  3993  3994  1
 5822  3993  3998  1
 5823  3994  3995  1
 5824  3995  3996  1
 5825  3996  3999  1
 5826  3997  4002  1
 5827  3997  3998  1
 5828  3998  3999  1
 5829  3999  4000  1
 5830  4000  4003  1
 5831  4001  4006  1
 5832  4001  4002  1
 5833  4002  4003  1
 5834  4003  4004  1
 5835  4004  4007  1
 5836  4005  4010  1
 5837  4005  4006  1
 5838  4006  4007  1
 5839  4007  4008  1
 5840  4008  4011  1
 5841  4009  4010  1
 5842  4009  4014  1
 5843  4010  4011  1
 5844  4011  4012  1
 5845  4012  4015  1
 5846  4013  4014  1
 5847  4013  4018  1
 5848  4014  4015  1
 5849  4015  4016  1
 5850  4016  4019  1
 5851  4017  4022  1
 5852  4017  4018  1
 5853  4018  4019  1
 5854  4019  4020  1
 5855  4020  4023  1
 5856  4021  4026  1
 5857  4021  4022  1
 5858  4022  4023  1
 5859  4023  4024  1
 5860  4024  4027  1
 5861  4025  4030  1
 5862  4025  4026  1
 5863  4026  4027  1
 5864  4027  4028  1
 5865  4028  4031  1
 5866  4029  4030  1
 5867  4030  4031  1
 5868  4031  4032  1

@<TRIPOS>SUBSTRUCTURE
1 ****        1 TEMP                        0 ****  **** 0 ROOT
