@<TRIPOS>MOLECULE
****
3 2 1 0 0
SMALL
USER_CHARGES


@<TRIPOS>ATOM
      1 O          -0.0000    0.3879    0.0000 O.3       1     ****    0.0000
      2 H          -0.7408   -0.1940    0.0000 H         1     ****    0.0000
      3 H           0.7408   -0.1940    0.0000 H         1     ****    0.0000
@<TRIPOS>BOND
     1     1     2     1
     2     1     3     1
