@<TRIPOS>MOLECULE
****
43 46 1 0 0
SMALL
USER_CHARGES


@<TRIPOS>ATOM
      1 O          -5.3803    5.0694   -0.9803 O.3       1     ****    0.0000
      2 C          -5.4472    3.9367    0.0607 C.3       1     ****    0.0000
      3 C          -4.5023    4.9437    0.2782 C.3       1     ****    0.0000
      4 C          -3.0553    4.7202   -0.1484 C.3       1     ****    0.0000
      5 O          -2.2779    4.4083    0.9894 O.3       1     ****    0.0000
      6 C          -0.9312    4.1790    0.8394 C.ar      1     ****    0.0000
      7 C          -0.2114    3.8296    1.9234 C.ar      1     ****    0.0000
      8 C           1.1059    3.5831    1.8689 C.ar      1     ****    0.0000
      9 C           1.7736    3.6766    0.7075 C.ar      1     ****    0.0000
     10 C           1.0722    4.0168   -0.3863 C.ar      1     ****    0.0000
     11 C          -0.2462    4.2608   -0.3191 C.ar      1     ****    0.0000
     12 C           3.2567    3.3923    0.6322 C.3       1     ****    0.0000
     13 C           3.4761    1.9199    0.3675 C.ar      1     ****    0.0000
     14 C           3.6082    1.0432    1.3760 C.ar      1     ****    0.0000
     15 C           3.7946   -0.2619    1.1290 C.ar      1     ****    0.0000
     16 C           3.8574   -0.7639   -0.1197 C.ar      1     ****    0.0000
     17 C           3.7192    0.1299   -1.1198 C.ar      1     ****    0.0000
     18 C           3.5323    1.4385   -0.8851 C.ar      1     ****    0.0000
     19 O           4.0505   -2.1155   -0.2769 O.3       1     ****    0.0000
     20 C           4.1205   -2.6553   -1.5807 C.3       1     ****    0.0000
     21 C           4.2977   -4.1673   -1.4892 C.3       1     ****    0.0000
     22 C           5.5610   -4.7263   -1.7031 C.3       1     ****    0.0000
     23 O           4.5872   -4.7220   -2.8959 O.3       1     ****    0.0000
     24 H          -6.4166    3.9867    0.5552 H         1     ****    0.0000
     25 H          -5.1749    3.0050   -0.4323 H         1     ****    0.0000
     26 H          -4.7088    5.7619    0.9756 H         1     ****    0.0000
     27 H          -2.9758    3.8837   -0.8801 H         1     ****    0.0000
     28 H          -2.6810    5.6657   -0.6053 H         1     ****    0.0000
     29 H          -0.7259    3.7410    2.8959 H         1     ****    0.0000
     30 H           1.6414    3.2981    2.7896 H         1     ****    0.0000
     31 H           1.5856    4.0950   -1.3593 H         1     ****    0.0000
     32 H          -0.7501    4.5329   -1.2600 H         1     ****    0.0000
     33 H           3.7340    4.0072   -0.1649 H         1     ****    0.0000
     34 H           3.7609    3.7002    1.5768 H         1     ****    0.0000
     35 H           3.5614    1.3945    2.4201 H         1     ****    0.0000
     36 H           3.8991   -0.9521    1.9840 H         1     ****    0.0000
     37 H           3.7534   -0.1862   -2.1743 H         1     ****    0.0000
     38 H           3.4208    2.1284   -1.7385 H         1     ****    0.0000
     39 H           3.1647   -2.4524   -2.1175 H         1     ****    0.0000
     40 H           4.9716   -2.1821   -2.1220 H         1     ****    0.0000
     41 H           3.5063   -4.7459   -1.0021 H         1     ****    0.0000
     42 H           5.7502   -5.7619   -1.4230 H         1     ****    0.0000
     43 H           6.4166   -4.1042   -1.9601 H         1     ****    0.0000
@<TRIPOS>BOND
     1     1     2     1
     2     1     3     1
     3     2     3     1
     4     2    24     1
     5     2    25     1
     6     3     4     1
     7     3    26     1
     8     4     5     1
     9     4    27     1
    10     4    28     1
    11     5     6     1
    12     6     7     1
    13     6    11     2
    14     7     8     2
    15     7    29     1
    16     8     9     1
    17     8    30     1
    18     9    10     2
    19     9    12     1
    20    10    11     1
    21    10    31     1
    22    11    32     1
    23    12    13     1
    24    12    33     1
    25    12    34     1
    26    13    14     1
    27    13    18     2
    28    14    15     2
    29    14    35     1
    30    15    16     1
    31    15    36     1
    32    16    17     2
    33    16    19     1
    34    17    18     1
    35    17    37     1
    36    18    38     1
    37    19    20     1
    38    20    21     1
    39    20    39     1
    40    20    40     1
    41    21    22     1
    42    21    23     1
    43    21    41     1
    44    22    23     1
    45    22    42     1
    46    22    43     1
