@<TRIPOS>MOLECULE
****
28 30 1 0 0
SMALL
USER_CHARGES


@<TRIPOS>ATOM
      1 C          -2.5181   -2.9491   -0.6131 C.ar      1     ****    0.0000
      2 C          -3.0511   -2.2823   -1.7163 C.ar      1     ****    0.0000
      3 C          -2.8044   -0.9210   -1.8944 C.ar      1     ****    0.0000
      4 C          -2.0249   -0.2266   -0.9693 C.ar      1     ****    0.0000
      5 C          -1.4921   -0.8934    0.1339 C.ar      1     ****    0.0000
      6 C          -1.7387   -2.2547    0.3119 C.ar      1     ****    0.0000
      7 N          -0.7847   -0.2631    0.9735 N.3       1     ****    0.0000
      8 C           0.3744   -0.7934    1.6782 C.3       1     ****    0.0000
      9 O           1.6016   -0.1290    1.3640 O.3       1     ****    0.0000
     10 C           1.5086    1.2368    1.3591 C.ar      1     ****    0.0000
     11 C           0.2818    1.9057    1.3591 C.ar      1     ****    0.0000
     12 C          -0.9931    1.1171    1.3984 C.3       1     ****    0.0000
     13 C           2.7055    1.9506    1.3218 C.ar      1     ****    0.0000
     14 C           2.6840    3.3449    1.3113 C.ar      1     ****    0.0000
     15 C           1.4654    4.0226    1.3334 C.ar      1     ****    0.0000
     16 C           0.2669    3.3067    1.3591 C.ar      1     ****    0.0000
     17 H          -2.7126   -4.0226   -0.4727 H         1     ****    0.0000
     18 H          -3.6658   -2.8299   -2.4457 H         1     ****    0.0000
     19 H          -3.2246   -0.3951   -2.7643 H         1     ****    0.0000
     20 H          -1.8304    0.8469   -1.1098 H         1     ****    0.0000
     21 H          -1.3184   -2.7806    1.1819 H         1     ****    0.0000
     22 H           0.4819   -1.8692    1.4138 H         1     ****    0.0000
     23 H           0.1912   -0.6341    2.7643 H         1     ****    0.0000
     24 H          -1.7342    1.5954    0.7197 H         1     ****    0.0000
     25 H          -1.3633    1.1060    2.4480 H         1     ****    0.0000
     26 H           3.6658    1.4145    1.3008 H         1     ****    0.0000
     27 H           3.6275    3.9098    1.2855 H         1     ****    0.0000
     28 H          -0.6924    3.8446    1.3793 H         1     ****    0.0000
@<TRIPOS>BOND
     1     1     2     1
     2     1     6     2
     3     1    17     1
     4     2     3     2
     5     2    18     1
     6     3     4     1
     7     3    19     1
     8     4     5     2
     9     4    20     1
    10     5     6     1
    11     5     7     1
    12     6    21     1
    13     7     8     1
    14     7    12     1
    15     8     9     1
    16     8    22     1
    17     8    23     1
    18     9    10     1
    19    10    11     2
    20    10    13     1
    21    11    12     1
    22    11    16     1
    23    12    24     1
    24    12    25     1
    25    13    14     2
    26    13    26     1
    27    14    15     1
    28    14    27     1
    29    15    16     2
    30    16    28     1
