@<TRIPOS>MOLECULE
HEADER,  detda.mol  read w/ mol2lmp > atom_typing v1.4 / 2 May 2023 w/PCFF-IFF atom-types > all2lmp: v1.11 / 11 October 2023  Class: 2 > lmp2SYBYLmol2 v1.1 / 4 November 2023 w/remove_PBC_bonds=False
  31 31    0    0    0
SMALL
NO_CHARGES
****
Energy = 0

@<TRIPOS>ATOM
      1 C           -1.5962     0.2321    -0.0000 C       1      m1     0.0000
      2 C           -0.9772    -0.9717    -0.0000 C       1      m1     0.0827
      3 C            0.3711    -1.0562    -0.0000 C       1      m1     0.0000
      4 C            1.0625     0.0999    -0.0001 C       1      m1    -0.1268
      5 C            0.4943     1.3154    -0.0001 C       1      m1     0.0000
      6 C           -0.8511     1.3581    -0.0000 C       1      m1     0.0827
      7 C            1.3261     2.5901    -0.0001 C       1      m1    -0.1060
      8 C            2.8552     2.4498    -0.0000 C       1      m1    -0.1590
      9 C            1.2470    -2.3089    -0.0000 C       1      m1    -0.1060
     10 C            0.6905    -3.7365     0.0002 C       1      m1    -0.1590
     11 C           -3.1120     0.3851    -0.0000 C       1      m1    -0.1590
     12 N           -1.4207     2.4935    -0.0001 N       1      m1    -0.0827
     13 N           -1.6936    -2.0182     0.0001 N       1      m1    -0.0827
     14 H            2.1609     0.0312    -0.0001 H       1      m1     0.1268
     15 H            1.0473     3.1848    -0.9041 H       1      m1     0.0530
     16 H            1.0472     3.1850     0.9037 H       1      m1     0.0530
     17 H            3.3409     3.4533    -0.0000 H       1      m1     0.0530
     18 H            3.2210     1.9170     0.9075 H       1      m1     0.0530
     19 H            3.2211     1.9169    -0.9074 H       1      m1     0.0530
     20 H            1.9109    -2.2347    -0.8976 H       1      m1     0.0530
     21 H            1.9110    -2.2346     0.8975 H       1      m1     0.0530
     22 H            1.5239    -4.4775     0.0002 H       1      m1     0.0530
     23 H            0.0935    -3.9508     0.9159 H       1      m1     0.0530
     24 H            0.0935    -3.9510    -0.9155 H       1      m1     0.0530
     25 H           -3.7105    -0.5462    -0.0002 H       1      m1     0.0530
     26 H           -3.4421     0.9419     0.9069 H       1      m1     0.0530
     27 H           -3.4421     0.9422    -0.9067 H       1      m1     0.0530
     28 H           -2.4637     2.5915    -0.0000 H       1      m1     0.0000
     29 H           -0.8688     3.3842    -0.0001 H       1      m1     0.0000
     30 H           -1.3021    -2.9822     0.0001 H       1      m1     0.0000
     31 H           -2.7381    -2.0021     0.0001 H       1      m1     0.0000
@<TRIPOS>BOND
     1      1      2      1
     2      1      6      1
     3     11      1      1
     4      2      3      1
     5      2     13      1
     6      3      4      1
     7      9      3      1
     8      4      5      1
     9      4     14      1
    10      5      6      1
    11      7      5      1
    12      6     12      1
    13      7      8      1
    14      7     15      1
    15      7     16      1
    16      8     17      1
    17      8     18      1
    18      8     19      1
    19      9     10      1
    20      9     20      1
    21      9     21      1
    22     10     22      1
    23     10     23      1
    24     10     24      1
    25     11     25      1
    26     11     26      1
    27     11     27      1
    28     28     12      1
    29     29     12      1
    30     30     13      1
    31     31     13      1
