@<TRIPOS>MOLECULE
cell_builder v1.7 / 11 April 2024 (Visualize in VMD w/Coloring Method=ResName to see molecule distribution)
  270 270    0    0    0
SMALL
NO_CHARGES
****
Energy = 0

@<TRIPOS>ATOM
      1 C           -0.5958     0.3690     3.5187 C       1      m1     0.2500
      2 C           -1.8173     0.8106     2.9512 C       1      m1     0.2500
      3 C           -2.5148    -0.3196     2.4548 C       1      m1     0.2500
      4 C           -1.7115    -1.4633     2.6963 C       1      m1     0.2500
      5 C           -0.5176    -1.0173     3.3311 C       1      m1     0.2500
      6 C            0.6882    -1.6907     3.0048 C       1      m1     0.2500
      7 C            1.8273    -0.8890     2.7961 C       1      m1     0.2500
      8 C            1.7846     0.5177     2.9433 C       1      m1     0.2500
      9 C            0.5705     1.1596     3.3244 C       1      m1     0.2500
     10 C            0.5121     2.3297     2.5577 C       1      m1     0.2500
     11 C           -0.7097     2.7804     1.9956 C       1      m1     0.2500
     12 C           -1.8958     2.0196     2.2111 C       1      m1     0.2500
     13 C           -2.6154     2.0775     1.0108 C       1      m1     0.2500
     14 C           -3.3202     0.9520     0.5160 C       1      m1     0.2500
     15 C           -3.2824    -0.2596     1.2644 C       1      m1     0.2500
     16 C           -3.2076    -1.2926     0.3214 C       1      m1     0.2500
     17 C           -2.3990    -2.4300     0.5587 C       1      m1     0.2500
     18 C           -1.6508    -2.5280     1.7687 C       1      m1     0.2500
     19 C           -0.4475    -3.2056     1.4651 C       1      m1     0.2500
     20 C            0.7502    -2.7690     2.1097 C       1      m1     0.2500
     21 C            1.9074    -2.6271     1.3109 C       1      m1     0.2500
     22 C            2.5818    -1.4489     1.7526 C       1      m1     0.2500
     23 C            3.2925    -0.6487     0.8313 C       1      m1     0.2500
     24 C            3.2578     0.7692     0.9839 C       1      m1     0.2500
     25 C            2.5095     1.3268     2.0545 C       1      m1     0.2500
     26 C            1.6775     2.4468     1.7761 C       1      m1     0.2500
     27 C            1.6586     2.9780     0.4692 C       1      m1     0.2500
     28 C            0.4328     3.4592    -0.0733 C       1      m1     0.2500
     29 C           -0.7418     3.3567     0.7184 C       1      m1     0.2500
     30 C           -1.9207     2.8760     0.0830 C       1      m1     0.2500
     31 C           -1.8943     2.5702    -1.2941 C       1      m1     0.2500
     32 C           -2.6316     1.4562    -1.7898 C       1      m1     0.2500
     33 C           -3.3495     0.6626    -0.8543 C       1      m1     0.2500
     34 C           -3.2383    -0.7502    -0.9771 C       1      m1     0.2500
     35 C           -2.4799    -1.3006    -2.0327 C       1      m1     0.2500
     36 C           -1.6966    -2.4631    -1.7784 C       1      m1     0.2500
     37 C           -1.6747    -3.0325    -0.4775 C       1      m1     0.2500
     38 C           -0.4370    -3.4553     0.0867 C       1      m1     0.2500
     39 C            0.7304    -3.3171    -0.7025 C       1      m1     0.2500
     40 C            1.9499    -2.9106    -0.0750 C       1      m1     0.2500
     41 C            2.6785    -2.1482    -0.9993 C       1      m1     0.2500
     42 C            3.3879    -0.9683    -0.5170 C       1      m1     0.2500
     43 C            3.3039     0.2771    -1.2504 C       1      m1     0.2500
     44 C            3.2609     1.3297    -0.3140 C       1      m1     0.2500
     45 C            2.4434     2.4686    -0.5768 C       1      m1     0.2500
     46 C            1.6785     2.5452    -1.7644 C       1      m1     0.2500
     47 C            0.4467     3.1790    -1.4564 C       1      m1     0.2500
     48 C           -0.7492     2.7333    -2.0881 C       1      m1     0.2500
     49 C           -0.7177     1.6694    -3.0213 C       1      m1     0.2500
     50 C           -1.9024     0.9002    -2.8622 C       1      m1     0.2500
     51 C           -1.8387    -0.5182    -3.0077 C       1      m1     0.2500
     52 C           -0.5955    -1.1139    -3.2567 C       1      m1     0.2500
     53 C           -0.5209    -2.3518    -2.5497 C       1      m1     0.2500
     54 C            0.7136    -2.8084    -2.0135 C       1      m1     0.2500
     55 C            1.8844    -2.0380    -2.1883 C       1      m1     0.2500
     56 C            1.7909    -0.8034    -2.9446 C       1      m1     0.2500
     57 C            2.5222     0.3685    -2.4680 C       1      m1     0.2500
     58 C            1.7195     1.4942    -2.7226 C       1      m1     0.2500
     59 C            0.5201     1.0526    -3.3410 C       1      m1     0.2500
     60 C            0.5925    -0.3669    -3.4692 C       1      m1     0.2500
     61 H           -0.7038     0.4249     4.1572 H       1      m1    -0.1250
     62 H           -0.4879     0.3130     2.8802 H       1      m1    -0.1250
     63 H           -2.1638     0.9575     3.4811 H       1      m1    -0.1250
     64 H           -1.4708     0.6638     2.4212 H       1      m1    -0.1250
     65 H           -2.9792    -0.3916     2.9038 H       1      m1    -0.1250
     66 H           -2.0503    -0.2477     2.0058 H       1      m1    -0.1250
     67 H           -2.0263    -1.7407     3.1928 H       1      m1    -0.1250
     68 H           -1.3968    -1.1859     2.1998 H       1      m1    -0.1250
     69 H           -0.6157    -1.2297     3.9375 H       1      m1    -0.1250
     70 H           -0.4195    -0.8048     2.7247 H       1      m1    -0.1250
     71 H            0.8327    -1.9795     3.5689 H       1      m1    -0.1250
     72 H            0.5437    -1.4019     2.4406 H       1      m1    -0.1250
     73 H            2.1887    -1.0540     3.3106 H       1      m1    -0.1250
     74 H            1.4660    -0.7240     2.2816 H       1      m1    -0.1250
     75 H            2.1339     0.5920     3.4864 H       1      m1    -0.1250
     76 H            1.4353     0.4435     2.4001 H       1      m1    -0.1250
     77 H            0.7014     1.3787     3.9222 H       1      m1    -0.1250
     78 H            0.4397     0.9406     2.7266 H       1      m1    -0.1250
     79 H            0.6172     2.7840     3.0106 H       1      m1    -0.1250
     80 H            0.4070     1.8754     2.1049 H       1      m1    -0.1250
     81 H           -0.8301     3.2997     2.3675 H       1      m1    -0.1250
     82 H           -0.5893     2.2611     1.6236 H       1      m1    -0.1250
     83 H           -2.2412     2.4048     2.6047 H       1      m1    -0.1250
     84 H           -1.5504     1.6345     1.8176 H       1      m1    -0.1250
     85 H           -3.1058     2.4712     1.1749 H       1      m1    -0.1250
     86 H           -2.1249     1.6838     0.8466 H       1      m1    -0.1250
     87 H           -3.9348     1.1383     0.6166 H       1      m1    -0.1250
     88 H           -2.7057     0.7657     0.4154 H       1      m1    -0.1250
     89 H           -3.8918    -0.3093     1.4849 H       1      m1    -0.1250
     90 H           -2.6730    -0.2099     1.0438 H       1      m1    -0.1250
     91 H           -2.6121    -1.0358     0.2768 H       1      m1    -0.1250
     92 H           -3.8030    -1.5494     0.3659 H       1      m1    -0.1250
     93 H           -2.8552    -2.8806     0.6647 H       1      m1    -0.1250
     94 H           -1.9428    -1.9793     0.4526 H       1      m1    -0.1250
     95 H           -1.9811    -2.9905     2.0841 H       1      m1    -0.1250
     96 H           -1.3205    -2.0654     1.4533 H       1      m1    -0.1250
     97 H           -0.5431    -3.7953     1.7212 H       1      m1    -0.1250
     98 H           -0.3519    -2.6159     1.2089 H       1      m1    -0.1250
     99 H            0.8988    -3.2714     2.4944 H       1      m1    -0.1250
    100 H            0.6016    -2.2666     1.7250 H       1      m1    -0.1250
    101 H            2.2906    -3.0937     1.5516 H       1      m1    -0.1250
    102 H            1.5242    -2.1605     1.0702 H       1      m1    -0.1250
    103 H            3.0732    -1.7120     2.0869 H       1      m1    -0.1250
    104 H            2.0903    -1.1859     1.4183 H       1      m1    -0.1250
    105 H            3.9021    -0.7683     1.0226 H       1      m1    -0.1250
    106 H            2.6828    -0.5292     0.6401 H       1      m1    -0.1250
    107 H            3.8664     0.8908     1.1772 H       1      m1    -0.1250
    108 H            2.6493     0.6476     0.7907 H       1      m1    -0.1250
    109 H            2.9710     1.5822     2.4343 H       1      m1    -0.1250
    110 H            2.0480     1.0713     1.6747 H       1      m1    -0.1250
    111 H            1.9938     2.9164     2.0954 H       1      m1    -0.1250
    112 H            1.3613     1.9772     1.4567 H       1      m1    -0.1250
    113 H            1.9630     3.5428     0.5735 H       1      m1    -0.1250
    114 H            1.3542     2.4132     0.3649 H       1      m1    -0.1250
    115 H            0.3312     2.8172    -0.0764 H       1      m1    -0.1250
    116 H            0.5344     4.1012    -0.0702 H       1      m1    -0.1250
    117 H           -0.5960     2.7353     0.5950 H       1      m1    -0.1250
    118 H           -0.8875     3.9780     0.8418 H       1      m1    -0.1250
    119 H           -1.5542     2.3392     0.0829 H       1      m1    -0.1250
    120 H           -2.2871     3.4129     0.0831 H       1      m1    -0.1250
    121 H           -1.5284     2.0844    -1.0648 H       1      m1    -0.1250
    122 H           -2.2603     3.0559    -1.5235 H       1      m1    -0.1250
    123 H           -2.1466     1.1587    -1.4754 H       1      m1    -0.1250
    124 H           -3.1166     1.7537    -2.1041 H       1      m1    -0.1250
    125 H           -2.7296     0.5514    -0.6935 H       1      m1    -0.1250
    126 H           -3.9694     0.7739    -1.0152 H       1      m1    -0.1250
    127 H           -2.6352    -0.5947    -0.7912 H       1      m1    -0.1250
    128 H           -3.8415    -0.9058    -1.1630 H       1      m1    -0.1250
    129 H           -2.0041    -1.0397    -1.6749 H       1      m1    -0.1250
    130 H           -2.9557    -1.5615    -2.3905 H       1      m1    -0.1250
    131 H           -1.3669    -2.0118    -1.4466 H       1      m1    -0.1250
    132 H           -2.0263    -2.9144    -2.1103 H       1      m1    -0.1250
    133 H           -1.3601    -2.4703    -0.3909 H       1      m1    -0.1250
    134 H           -1.9893    -3.5947    -0.5641 H       1      m1    -0.1250
    135 H           -0.3598    -2.8099     0.0955 H       1      m1    -0.1250
    136 H           -0.5142    -4.1006     0.0780 H       1      m1    -0.1250
    137 H            0.8649    -3.9418    -0.8213 H       1      m1    -0.1250
    138 H            0.5958    -2.6923    -0.5838 H       1      m1    -0.1250
    139 H            2.2839    -3.4683    -0.0791 H       1      m1    -0.1250
    140 H            1.6160    -2.3530    -0.0709 H       1      m1    -0.1250
    141 H            3.1605    -2.5458    -1.1784 H       1      m1    -0.1250
    142 H            2.1965    -1.7506    -0.8202 H       1      m1    -0.1250
    143 H            4.0117    -1.1365    -0.5884 H       1      m1    -0.1250
    144 H            2.7642    -0.8000    -0.4456 H       1      m1    -0.1250
    145 H            2.6990     0.2232    -1.0189 H       1      m1    -0.1250
    146 H            3.9089     0.3310    -1.4820 H       1      m1    -0.1250
    147 H            3.8601     1.5780    -0.3563 H       1      m1    -0.1250
    148 H            2.6617     1.0814    -0.2716 H       1      m1    -0.1250
    149 H            2.8841     2.9383    -0.6639 H       1      m1    -0.1250
    150 H            2.0027     1.9988    -0.4897 H       1      m1    -0.1250
    151 H            1.3691     2.0713    -1.4448 H       1      m1    -0.1250
    152 H            1.9879     3.0191    -2.0840 H       1      m1    -0.1250
    153 H            0.3663     2.5887    -1.1965 H       1      m1    -0.1250
    154 H            0.5271     3.7694    -1.7162 H       1      m1    -0.1250
    155 H           -0.5911     2.2249    -1.7152 H       1      m1    -0.1250
    156 H           -0.9073     3.2418    -2.4609 H       1      m1    -0.1250
    157 H           -0.5885     1.3543    -2.4677 H       1      m1    -0.1250
    158 H           -0.8470     1.9845    -3.5750 H       1      m1    -0.1250
    159 H           -1.5502     0.7230    -2.3455 H       1      m1    -0.1250
    160 H           -2.2547     1.0775    -3.3789 H       1      m1    -0.1250
    161 H           -1.4982    -0.4034    -2.4661 H       1      m1    -0.1250
    162 H           -2.1791    -0.6330    -3.5494 H       1      m1    -0.1250
    163 H           -0.4950    -0.8912    -2.6544 H       1      m1    -0.1250
    164 H           -0.6960    -1.3366    -3.8591 H       1      m1    -0.1250
    165 H           -0.4129    -1.9205    -2.0756 H       1      m1    -0.1250
    166 H           -0.6289    -2.7831    -3.0239 H       1      m1    -0.1250
    167 H            0.5908    -2.2806    -1.6546 H       1      m1    -0.1250
    168 H            0.8364    -3.3362    -2.3725 H       1      m1    -0.1250
    169 H            1.5466    -1.6653    -1.7766 H       1      m1    -0.1250
    170 H            2.2221    -2.4107    -2.6001 H       1      m1    -0.1250
    171 H            1.4553    -0.6522    -2.4088 H       1      m1    -0.1250
    172 H            2.1265    -0.9546    -3.4803 H       1      m1    -0.1250
    173 H            2.0582     0.3104    -2.0166 H       1      m1    -0.1250
    174 H            2.9862     0.4266    -2.9195 H       1      m1    -0.1250
    175 H            1.4072     1.2128    -2.2268 H       1      m1    -0.1250
    176 H            2.0318     1.7755    -3.2184 H       1      m1    -0.1250
    177 H            0.4309     0.8601    -2.7266 H       1      m1    -0.1250
    178 H            0.6093     1.2451    -3.9554 H       1      m1    -0.1250
    179 H            0.4995    -0.2941    -2.8300 H       1      m1    -0.1250
    180 H            0.6856    -0.4397    -4.1084 H       1      m1    -0.1250
    181 O           11.3123    -0.2275    22.0342 O       2      m2    -0.8200
    182 H           10.8129     0.1819    22.7199 H       2      m2     0.4100
    183 H           10.8748     0.0456    21.2459 H       2      m2     0.4100
    184 O           10.9157   -11.1952    10.6755 O       2      m2    -0.8200
    185 H           11.5566   -11.4076    11.3324 H       2      m2     0.4100
    186 H           10.5277   -10.3973    10.9921 H       2      m2     0.4100
    187 O            0.0856   -10.6221    -0.0190 O       2      m2    -0.8200
    188 H           -0.7621   -11.0299    -0.0691 H       2      m2     0.4100
    189 H            0.6764   -11.3480     0.0882 H       2      m2     0.4100
    190 O          -11.0128   -22.3865   -22.0312 O       2      m2    -0.8200
    191 H          -10.3925   -21.8614   -21.5548 H       2      m2     0.4100
    192 H          -11.5947   -21.7521   -22.4139 H       2      m2     0.4100
    193 O          -21.8572   -21.6411   -10.9645 O       2      m2    -0.8200
    194 H          -21.5896   -22.4215   -10.5097 H       2      m2     0.4100
    195 H          -22.5532   -21.9375   -11.5258 H       2      m2     0.4100
    196 O          -21.8398    -0.3525    22.0232 O       2      m2    -0.8200
    197 H          -21.6193     0.3492    21.4347 H       2      m2     0.4100
    198 H          -22.5409     0.0033    22.5421 H       2      m2     0.4100
    199 O          -21.9563    11.1324     0.3620 O       2      m2    -0.8200
    200 H          -21.3336    11.1536    -0.3445 H       2      m2     0.4100
    201 H          -22.7101    10.7139    -0.0175 H       2      m2     0.4100
    202 O           21.6198    -0.0566    -0.0524 O       2      m2    -0.8200
    203 H           22.1083    -0.0936     0.7523 H       2      m2     0.4100
    204 H           22.2719     0.1502    -0.6999 H       2      m2     0.4100
    205 O          -21.9127     0.3015     0.2280 O       2      m2    -0.8200
    206 H          -22.6152     0.2275    -0.3952 H       2      m2     0.4100
    207 H          -21.4721    -0.5289     0.1672 H       2      m2     0.4100
    208 O           21.6584   -22.0007   -11.1839 O       2      m2    -0.8200
    209 H           21.8246   -21.8730   -10.2655 H       2      m2     0.4100
    210 H           22.5170   -22.1263   -11.5506 H       2      m2     0.4100
    211 O           10.8727   -11.0856     0.3563 O       2      m2    -0.8200
    212 H           11.1804   -10.2565     0.0320 H       2      m2     0.4100
    213 H           10.9469   -11.6579    -0.3883 H       2      m2     0.4100
    214 O            0.2378   -21.7381    11.1592 O       2      m2    -0.8200
    215 H           -0.6189   -21.5994    10.7930 H       2      m2     0.4100
    216 H            0.3811   -22.6625    11.0478 H       2      m2     0.4100
    217 O            0.3526   -22.1128    22.1159 O       2      m2    -0.8200
    218 H           -0.1031   -22.3481    21.3257 H       2      m2     0.4100
    219 H           -0.2495   -21.5391    22.5583 H       2      m2     0.4100
    220 O           22.3714   -21.8927    22.0328 O       2      m2    -0.8200
    221 H           21.6004   -21.3645    22.1511 H       2      m2     0.4100
    222 H           22.0283   -22.7428    21.8160 H       2      m2     0.4100
    223 O          -21.6800    21.9443    -0.2121 O       2      m2    -0.8200
    224 H          -21.8034    21.7846     0.7081 H       2      m2     0.4100
    225 H          -22.5166    22.2711    -0.4960 H       2      m2     0.4100
    226 O           11.0870   -22.2096   -11.3146 O       2      m2    -0.8200
    227 H           11.1238   -21.2741   -11.2101 H       2      m2     0.4100
    228 H           10.7892   -22.5163   -10.4752 H       2      m2     0.4100
    229 O           21.6274   -10.8975   -11.0338 O       2      m2    -0.8200
    230 H           22.0277   -11.7193   -11.2611 H       2      m2     0.4100
    231 H           22.3449   -10.3832   -10.7051 H       2      m2     0.4100
    232 O          -10.9238    -0.1773    11.3365 O       2      m2    -0.8200
    233 H          -10.8799     0.7431    11.1407 H       2      m2     0.4100
    234 H          -11.1963    -0.5658    10.5227 H       2      m2     0.4100
    235 O           11.2673    10.7189    11.0049 O       2      m2    -0.8200
    236 H           11.0006    11.2807    11.7125 H       2      m2     0.4100
    237 H           10.7320    11.0004    10.2826 H       2      m2     0.4100
    238 O          -10.7669     0.1090    -0.2903 O       2      m2    -0.8200
    239 H          -10.5560     0.0209     0.6236 H       2      m2     0.4100
    240 H          -11.6771    -0.1298    -0.3332 H       2      m2     0.4100
    241 O           11.2546    22.1045     0.2734 O       2      m2    -0.8200
    242 H           11.2738    21.3413    -0.2785 H       2      m2     0.4100
    243 H           10.4716    22.5543     0.0051 H       2      m2     0.4100
    244 O          -11.1103    22.3608   -22.0903 O       2      m2    -0.8200
    245 H          -10.3525    21.8907   -22.3940 H       2      m2     0.4100
    246 H          -11.5372    21.7484   -21.5157 H       2      m2     0.4100
    247 O          -21.7686   -21.8876    21.7096 O       2      m2    -0.8200
    248 H          -21.7073   -22.6679    22.2338 H       2      m2     0.4100
    249 H          -22.5241   -21.4445    22.0566 H       2      m2     0.4100
    250 O          -22.0768    10.6250   -22.0629 O       2      m2    -0.8200
    251 H          -21.3211    11.0022   -21.6457 H       2      m2     0.4100
    252 H          -22.6021    11.3728   -22.2914 H       2      m2     0.4100
    253 O            0.0592    10.6220    21.9358 O       2      m2    -0.8200
    254 H            0.7011    11.2924    22.0970 H       2      m2     0.4100
    255 H           -0.7603    11.0856    21.9673 H       2      m2     0.4100
    256 O           22.0441    21.7936    10.6745 O       2      m2    -0.8200
    257 H           21.3097    21.8000    11.2645 H       2      m2     0.4100
    258 H           22.6462    22.4064    11.0610 H       2      m2     0.4100
    259 O          -22.3216     0.0047   -10.7832 O       2      m2    -0.8200
    260 H          -22.2037    -0.3659   -11.6411 H       2      m2     0.4100
    261 H          -21.4747     0.3611   -10.5757 H       2      m2     0.4100
    262 O          -11.1291    22.3087   -10.8037 O       2      m2    -0.8200
    263 H          -11.6322    21.6670   -11.2754 H       2      m2     0.4100
    264 H          -10.2387    22.0243   -10.9210 H       2      m2     0.4100
    265 O           10.7038    11.0166   -21.7500 O       2      m2    -0.8200
    266 H           11.3993    11.6405   -21.8705 H       2      m2     0.4100
    267 H           10.8969    10.3429   -22.3795 H       2      m2     0.4100
    268 O            0.3515    -0.0182    10.8368 O       2      m2    -0.8200
    269 H            0.1354     0.1731    11.7336 H       2      m2     0.4100
    270 H           -0.4869    -0.1549    10.4296 H       2      m2     0.4100
@<TRIPOS>BOND
     1      1      2      1
     2      1      5      1
     3      1      9      1
     4      2      3      1
     5      2     12      1
     6      3      4      1
     7      3     15      1
     8      4      5      1
     9      4     18      1
    10      5      6      1
    11      6      7      1
    12      6     20      1
    13      7      8      1
    14      7     22      1
    15      8      9      1
    16      8     25      1
    17      9     10      1
    18     10     11      1
    19     10     26      1
    20     11     12      1
    21     11     29      1
    22     12     13      1
    23     13     14      1
    24     13     30      1
    25     14     15      1
    26     14     33      1
    27     15     16      1
    28     16     17      1
    29     16     34      1
    30     17     18      1
    31     17     37      1
    32     18     19      1
    33     19     20      1
    34     19     38      1
    35     20     21      1
    36     21     22      1
    37     21     40      1
    38     22     23      1
    39     23     24      1
    40     23     42      1
    41     24     25      1
    42     24     44      1
    43     25     26      1
    44     26     27      1
    45     27     28      1
    46     27     45      1
    47     28     29      1
    48     28     47      1
    49     29     30      1
    50     30     31      1
    51     31     32      1
    52     31     48      1
    53     32     33      1
    54     32     50      1
    55     33     34      1
    56     34     35      1
    57     35     36      1
    58     35     51      1
    59     36     37      1
    60     36     53      1
    61     37     38      1
    62     38     39      1
    63     39     40      1
    64     39     54      1
    65     40     41      1
    66     41     42      1
    67     41     55      1
    68     42     43      1
    69     43     44      1
    70     43     57      1
    71     44     45      1
    72     45     46      1
    73     46     47      1
    74     46     58      1
    75     47     48      1
    76     48     49      1
    77     49     50      1
    78     49     59      1
    79     50     51      1
    80     51     52      1
    81     52     53      1
    82     52     60      1
    83     53     54      1
    84     54     55      1
    85     55     56      1
    86     56     57      1
    87     56     60      1
    88     57     58      1
    89     58     59      1
    90     59     60      1
    91      1     61      1
    92      1     62      1
    93      2     63      1
    94      2     64      1
    95      3     65      1
    96      3     66      1
    97      4     67      1
    98      4     68      1
    99      5     69      1
   100      5     70      1
   101      6     71      1
   102      6     72      1
   103      7     73      1
   104      7     74      1
   105      8     75      1
   106      8     76      1
   107      9     77      1
   108      9     78      1
   109     10     79      1
   110     10     80      1
   111     11     81      1
   112     11     82      1
   113     12     83      1
   114     12     84      1
   115     13     85      1
   116     13     86      1
   117     14     87      1
   118     14     88      1
   119     15     89      1
   120     15     90      1
   121     16     91      1
   122     16     92      1
   123     17     93      1
   124     17     94      1
   125     18     95      1
   126     18     96      1
   127     19     97      1
   128     19     98      1
   129     20     99      1
   130     20    100      1
   131     21    101      1
   132     21    102      1
   133     22    103      1
   134     22    104      1
   135     23    105      1
   136     23    106      1
   137     24    107      1
   138     24    108      1
   139     25    109      1
   140     25    110      1
   141     26    111      1
   142     26    112      1
   143     27    113      1
   144     27    114      1
   145     28    115      1
   146     28    116      1
   147     29    117      1
   148     29    118      1
   149     30    119      1
   150     30    120      1
   151     31    121      1
   152     31    122      1
   153     32    123      1
   154     32    124      1
   155     33    125      1
   156     33    126      1
   157     34    127      1
   158     34    128      1
   159     35    129      1
   160     35    130      1
   161     36    131      1
   162     36    132      1
   163     37    133      1
   164     37    134      1
   165     38    135      1
   166     38    136      1
   167     39    137      1
   168     39    138      1
   169     40    139      1
   170     40    140      1
   171     41    141      1
   172     41    142      1
   173     42    143      1
   174     42    144      1
   175     43    145      1
   176     43    146      1
   177     44    147      1
   178     44    148      1
   179     45    149      1
   180     45    150      1
   181     46    151      1
   182     46    152      1
   183     47    153      1
   184     47    154      1
   185     48    155      1
   186     48    156      1
   187     49    157      1
   188     49    158      1
   189     50    159      1
   190     50    160      1
   191     51    161      1
   192     51    162      1
   193     52    163      1
   194     52    164      1
   195     53    165      1
   196     53    166      1
   197     54    167      1
   198     54    168      1
   199     55    169      1
   200     55    170      1
   201     56    171      1
   202     56    172      1
   203     57    173      1
   204     57    174      1
   205     58    175      1
   206     58    176      1
   207     59    177      1
   208     59    178      1
   209     60    179      1
   210     60    180      1
   211    182    181      1
   212    183    181      1
   213    185    184      1
   214    186    184      1
   215    188    187      1
   216    189    187      1
   217    191    190      1
   218    192    190      1
   219    194    193      1
   220    195    193      1
   221    197    196      1
   222    198    196      1
   223    200    199      1
   224    201    199      1
   225    203    202      1
   226    204    202      1
   227    206    205      1
   228    207    205      1
   229    209    208      1
   230    210    208      1
   231    212    211      1
   232    213    211      1
   233    215    214      1
   234    216    214      1
   235    218    217      1
   236    219    217      1
   237    221    220      1
   238    222    220      1
   239    224    223      1
   240    225    223      1
   241    227    226      1
   242    228    226      1
   243    230    229      1
   244    231    229      1
   245    233    232      1
   246    234    232      1
   247    236    235      1
   248    237    235      1
   249    239    238      1
   250    240    238      1
   251    242    241      1
   252    243    241      1
   253    245    244      1
   254    246    244      1
   255    248    247      1
   256    249    247      1
   257    251    250      1
   258    252    250      1
   259    254    253      1
   260    255    253      1
   261    257    256      1
   262    258    256      1
   263    260    259      1
   264    261    259      1
   265    263    262      1
   266    264    262      1
   267    266    265      1
   268    267    265      1
   269    269    268      1
   270    270    268      1
