@<TRIPOS>MOLECULE
cell_builder v1.7 / 11 April 2024 (Visualize in VMD w/Coloring Method=ResName to see molecule distribution)
  2740 2990    0    0    0
SMALL
NO_CHARGES
****
Energy = 0

@<TRIPOS>ATOM
      1 C           25.9293     0.0000    -7.8243 C       1      m1     0.0000
      2 C           25.7370     1.2142    -7.1116 C       1      m1     0.0000
      3 C           25.1789     2.3095    -7.8243 C       1      m1     0.0000
      4 C           24.3096     3.1788    -7.1116 C       1      m1     0.0000
      5 C           23.2142     3.7369    -7.8243 C       1      m1     0.0000
      6 C           22.0000     3.9292    -7.1116 C       1      m1     0.0000
      7 C           20.7858     3.7369    -7.8243 C       1      m1     0.0000
      8 C           19.6904     3.1788    -7.1116 C       1      m1     0.0000
      9 C           18.8211     2.3095    -7.8243 C       1      m1     0.0000
     10 C           18.2630     1.2142    -7.1116 C       1      m1     0.0000
     11 C           18.0707     0.0000    -7.8243 C       1      m1     0.0000
     12 C           18.2630    -1.2143    -7.1116 C       1      m1     0.0000
     13 C           18.8211    -2.3096    -7.8243 C       1      m1     0.0000
     14 C           19.6904    -3.1789    -7.1116 C       1      m1     0.0000
     15 C           20.7858    -3.7370    -7.8243 C       1      m1     0.0000
     16 C           22.0000    -3.9293    -7.1116 C       1      m1     0.0000
     17 C           23.2142    -3.7370    -7.8243 C       1      m1     0.0000
     18 C           24.3096    -3.1789    -7.1116 C       1      m1     0.0000
     19 C           25.1789    -2.3096    -7.8243 C       1      m1     0.0000
     20 C           25.7370    -1.2143    -7.1116 C       1      m1     0.0000
     21 C           25.9293     0.0000    -4.9779 C       1      m1     0.0000
     22 C           25.7370     1.2142    -5.6906 C       1      m1     0.0000
     23 C           25.1789     2.3095    -4.9779 C       1      m1     0.0000
     24 C           24.3096     3.1788    -5.6906 C       1      m1     0.0000
     25 C           23.2142     3.7369    -4.9779 C       1      m1     0.0000
     26 C           22.0000     3.9292    -5.6906 C       1      m1     0.0000
     27 C           20.7858     3.7369    -4.9779 C       1      m1     0.0000
     28 C           19.6904     3.1788    -5.6906 C       1      m1     0.0000
     29 C           18.8211     2.3095    -4.9779 C       1      m1     0.0000
     30 C           18.2630     1.2142    -5.6906 C       1      m1     0.0000
     31 C           18.0707     0.0000    -4.9779 C       1      m1     0.0000
     32 C           18.2630    -1.2143    -5.6906 C       1      m1     0.0000
     33 C           18.8211    -2.3096    -4.9779 C       1      m1     0.0000
     34 C           19.6904    -3.1789    -5.6906 C       1      m1     0.0000
     35 C           20.7858    -3.7370    -4.9779 C       1      m1     0.0000
     36 C           22.0000    -3.9293    -5.6906 C       1      m1     0.0000
     37 C           23.2142    -3.7370    -4.9779 C       1      m1     0.0000
     38 C           24.3096    -3.1789    -5.6906 C       1      m1     0.0000
     39 C           25.1789    -2.3096    -4.9779 C       1      m1     0.0000
     40 C           25.7370    -1.2143    -5.6906 C       1      m1     0.0000
     41 C           25.9293     0.0000    -3.5569 C       1      m1     0.0000
     42 C           25.7370     1.2142    -2.8442 C       1      m1     0.0000
     43 C           25.1789     2.3095    -3.5569 C       1      m1     0.0000
     44 C           24.3096     3.1788    -2.8442 C       1      m1     0.0000
     45 C           23.2142     3.7369    -3.5569 C       1      m1     0.0000
     46 C           22.0000     3.9292    -2.8442 C       1      m1     0.0000
     47 C           20.7858     3.7369    -3.5569 C       1      m1     0.0000
     48 C           19.6904     3.1788    -2.8442 C       1      m1     0.0000
     49 C           18.8211     2.3095    -3.5569 C       1      m1     0.0000
     50 C           18.2630     1.2142    -2.8442 C       1      m1     0.0000
     51 C           18.0707     0.0000    -3.5569 C       1      m1     0.0000
     52 C           18.2630    -1.2143    -2.8442 C       1      m1     0.0000
     53 C           18.8211    -2.3096    -3.5569 C       1      m1     0.0000
     54 C           19.6904    -3.1789    -2.8442 C       1      m1     0.0000
     55 C           20.7858    -3.7370    -3.5569 C       1      m1     0.0000
     56 C           22.0000    -3.9293    -2.8442 C       1      m1     0.0000
     57 C           23.2142    -3.7370    -3.5569 C       1      m1     0.0000
     58 C           24.3096    -3.1789    -2.8442 C       1      m1     0.0000
     59 C           25.1789    -2.3096    -3.5569 C       1      m1     0.0000
     60 C           25.7370    -1.2143    -2.8442 C       1      m1     0.0000
     61 C           25.9293     0.0000    -0.7105 C       1      m1     0.0000
     62 C           25.7370     1.2142    -1.4232 C       1      m1     0.0000
     63 C           25.1789     2.3095    -0.7105 C       1      m1     0.0000
     64 C           24.3096     3.1788    -1.4232 C       1      m1     0.0000
     65 C           23.2142     3.7369    -0.7105 C       1      m1     0.0000
     66 C           22.0000     3.9292    -1.4232 C       1      m1     0.0000
     67 C           20.7858     3.7369    -0.7105 C       1      m1     0.0000
     68 C           19.6904     3.1788    -1.4232 C       1      m1     0.0000
     69 C           18.8211     2.3095    -0.7105 C       1      m1     0.0000
     70 C           18.2630     1.2142    -1.4232 C       1      m1     0.0000
     71 C           18.0707     0.0000    -0.7105 C       1      m1     0.0000
     72 C           18.2630    -1.2143    -1.4232 C       1      m1     0.0000
     73 C           18.8211    -2.3096    -0.7105 C       1      m1     0.0000
     74 C           19.6904    -3.1789    -1.4232 C       1      m1     0.0000
     75 C           20.7858    -3.7370    -0.7105 C       1      m1     0.0000
     76 C           22.0000    -3.9293    -1.4232 C       1      m1     0.0000
     77 C           23.2142    -3.7370    -0.7105 C       1      m1     0.0000
     78 C           24.3096    -3.1789    -1.4232 C       1      m1     0.0000
     79 C           25.1789    -2.3096    -0.7105 C       1      m1     0.0000
     80 C           25.7370    -1.2143    -1.4232 C       1      m1     0.0000
     81 C           25.9293     0.0000     0.7105 C       1      m1     0.0000
     82 C           25.7370     1.2142     1.4232 C       1      m1     0.0000
     83 C           25.1789     2.3095     0.7105 C       1      m1     0.0000
     84 C           24.3096     3.1788     1.4232 C       1      m1     0.0000
     85 C           23.2142     3.7369     0.7105 C       1      m1     0.0000
     86 C           22.0000     3.9292     1.4232 C       1      m1     0.0000
     87 C           20.7858     3.7369     0.7105 C       1      m1     0.0000
     88 C           19.6904     3.1788     1.4232 C       1      m1     0.0000
     89 C           18.8211     2.3095     0.7105 C       1      m1     0.0000
     90 C           18.2630     1.2142     1.4232 C       1      m1     0.0000
     91 C           18.0707     0.0000     0.7105 C       1      m1     0.0000
     92 C           18.2630    -1.2143     1.4232 C       1      m1     0.0000
     93 C           18.8211    -2.3096     0.7105 C       1      m1     0.0000
     94 C           19.6904    -3.1789     1.4232 C       1      m1     0.0000
     95 C           20.7858    -3.7370     0.7105 C       1      m1     0.0000
     96 C           22.0000    -3.9293     1.4232 C       1      m1     0.0000
     97 C           23.2142    -3.7370     0.7105 C       1      m1     0.0000
     98 C           24.3096    -3.1789     1.4232 C       1      m1     0.0000
     99 C           25.1789    -2.3096     0.7105 C       1      m1     0.0000
    100 C           25.7370    -1.2143     1.4232 C       1      m1     0.0000
    101 C           25.9293     0.0000     3.5569 C       1      m1     0.0000
    102 C           25.7370     1.2142     2.8442 C       1      m1     0.0000
    103 C           25.1789     2.3095     3.5569 C       1      m1     0.0000
    104 C           24.3096     3.1788     2.8442 C       1      m1     0.0000
    105 C           23.2142     3.7369     3.5569 C       1      m1     0.0000
    106 C           22.0000     3.9292     2.8442 C       1      m1     0.0000
    107 C           20.7858     3.7369     3.5569 C       1      m1     0.0000
    108 C           19.6904     3.1788     2.8442 C       1      m1     0.0000
    109 C           18.8211     2.3095     3.5569 C       1      m1     0.0000
    110 C           18.2630     1.2142     2.8442 C       1      m1     0.0000
    111 C           18.0707     0.0000     3.5569 C       1      m1     0.0000
    112 C           18.2630    -1.2143     2.8442 C       1      m1     0.0000
    113 C           18.8211    -2.3096     3.5569 C       1      m1     0.0000
    114 C           19.6904    -3.1789     2.8442 C       1      m1     0.0000
    115 C           20.7858    -3.7370     3.5569 C       1      m1     0.0000
    116 C           22.0000    -3.9293     2.8442 C       1      m1     0.0000
    117 C           23.2142    -3.7370     3.5569 C       1      m1     0.0000
    118 C           24.3096    -3.1789     2.8442 C       1      m1     0.0000
    119 C           25.1789    -2.3096     3.5569 C       1      m1     0.0000
    120 C           25.7370    -1.2143     2.8442 C       1      m1     0.0000
    121 C           25.9293     0.0000     4.9779 C       1      m1     0.0000
    122 C           25.7370     1.2142     5.6906 C       1      m1     0.0000
    123 C           25.1789     2.3095     4.9779 C       1      m1     0.0000
    124 C           24.3096     3.1788     5.6906 C       1      m1     0.0000
    125 C           23.2142     3.7369     4.9779 C       1      m1     0.0000
    126 C           22.0000     3.9292     5.6906 C       1      m1     0.0000
    127 C           20.7858     3.7369     4.9779 C       1      m1     0.0000
    128 C           19.6904     3.1788     5.6906 C       1      m1     0.0000
    129 C           18.8211     2.3095     4.9779 C       1      m1     0.0000
    130 C           18.2630     1.2142     5.6906 C       1      m1     0.0000
    131 C           18.0707     0.0000     4.9779 C       1      m1     0.0000
    132 C           18.2630    -1.2143     5.6906 C       1      m1     0.0000
    133 C           18.8211    -2.3096     4.9779 C       1      m1     0.0000
    134 C           19.6904    -3.1789     5.6906 C       1      m1     0.0000
    135 C           20.7858    -3.7370     4.9779 C       1      m1     0.0000
    136 C           22.0000    -3.9293     5.6906 C       1      m1     0.0000
    137 C           23.2142    -3.7370     4.9779 C       1      m1     0.0000
    138 C           24.3096    -3.1789     5.6906 C       1      m1     0.0000
    139 C           25.1789    -2.3096     4.9779 C       1      m1     0.0000
    140 C           25.7370    -1.2143     5.6906 C       1      m1     0.0000
    141 C           25.9293     0.0000     7.8243 C       1      m1     0.0000
    142 C           25.7370     1.2142     7.1116 C       1      m1     0.0000
    143 C           25.1789     2.3095     7.8243 C       1      m1     0.0000
    144 C           24.3096     3.1788     7.1116 C       1      m1     0.0000
    145 C           23.2142     3.7369     7.8243 C       1      m1     0.0000
    146 C           22.0000     3.9292     7.1116 C       1      m1     0.0000
    147 C           20.7858     3.7369     7.8243 C       1      m1     0.0000
    148 C           19.6904     3.1788     7.1116 C       1      m1     0.0000
    149 C           18.8211     2.3095     7.8243 C       1      m1     0.0000
    150 C           18.2630     1.2142     7.1116 C       1      m1     0.0000
    151 C           18.0707     0.0000     7.8243 C       1      m1     0.0000
    152 C           18.2630    -1.2143     7.1116 C       1      m1     0.0000
    153 C           18.8211    -2.3096     7.8243 C       1      m1     0.0000
    154 C           19.6904    -3.1789     7.1116 C       1      m1     0.0000
    155 C           20.7858    -3.7370     7.8243 C       1      m1     0.0000
    156 C           22.0000    -3.9293     7.1116 C       1      m1     0.0000
    157 C           23.2142    -3.7370     7.8243 C       1      m1     0.0000
    158 C           24.3096    -3.1789     7.1116 C       1      m1     0.0000
    159 C           25.1789    -2.3096     7.8243 C       1      m1     0.0000
    160 C           25.7370    -1.2143     7.1116 C       1      m1     0.0000
    161 O           29.3863     0.0688    45.8672 O       2      m2    -0.2660
    162 C           28.8090     1.4857    45.6927 C       2      m2     0.0270
    163 C           28.1888     0.6592    46.6341 C       2      m2     0.0800
    164 C           26.9275    -0.1055    46.2466 C       2      m2     0.0270
    165 O           25.8004     0.5508    46.7897 O       2      m2    -0.1595
    166 C           24.5493     0.0242    46.5749 C       2      m2     0.0265
    167 C           23.4788     0.6886    47.0521 C       2      m2    -0.1268
    168 C           22.2219     0.2509    46.8857 C       2      m2    -0.1268
    169 C           21.9755    -0.8907    46.2229 C       2      m2     0.0000
    170 C           23.0293    -1.5642    45.7331 C       2      m2    -0.1268
    171 C           24.2828    -1.1157    45.9059 C       2      m2    -0.1268
    172 C           20.5624    -1.3893    46.0213 C       2      m2    -0.1060
    173 C           19.9972    -0.8043    44.7467 C       2      m2     0.0000
    174 C           19.3250     0.3581    44.7522 C       2      m2    -0.1268
    175 C           18.8350     0.8713    43.6140 C       2      m2    -0.1268
    176 C           18.9854     0.2663    42.4196 C       2      m2     0.0265
    177 C           19.6659    -0.8977    42.4322 C       2      m2    -0.1268
    178 C           20.1610    -1.4213    43.5650 C       2      m2    -0.1268
    179 O           18.4496     0.8667    41.3055 O       2      m2    -0.1595
    180 C           18.5979     0.2424    40.0467 C       2      m2     0.0270
    181 C           17.9571     1.1168    38.9740 C       2      m2     0.0800
    182 C           16.7014     0.7726    38.4652 C       2      m2     0.0270
    183 O           17.9308     0.3387    37.6458 O       2      m2    -0.2660
    184 H           29.5643     2.2021    46.0139 H       2      m2     0.0530
    185 H           28.4233     1.5734    44.6784 H       2      m2     0.0530
    186 H           28.4220     0.7535    47.6996 H       2      m2     0.0530
    187 H           26.8142    -0.1607    45.1395 H       2      m2     0.0530
    188 H           27.0014    -1.1318    46.6757 H       2      m2     0.0530
    189 H           23.6415     1.6322    47.6012 H       2      m2     0.1268
    190 H           21.3852     0.8397    47.2967 H       2      m2     0.1268
    191 H           22.8646    -2.5016    45.1758 H       2      m2     0.1268
    192 H           25.0927    -1.7241    45.4732 H       2      m2     0.1268
    193 H           20.5410    -2.5026    45.9824 H       2      m2     0.0530
    194 H           19.9251    -1.1174    46.8937 H       2      m2     0.0530
    195 H           19.1735     0.9016    45.6995 H       2      m2     0.1268
    196 H           18.2878     1.8289    43.6584 H       2      m2     0.1268
    197 H           19.8424    -1.4638    41.5041 H       2      m2     0.1268
    198 H           20.7140    -2.3747    43.5211 H       2      m2     0.1268
    199 H           19.6823     0.1432    39.8078 H       2      m2     0.0530
    200 H           18.1206    -0.7636    40.0844 H       2      m2     0.0530
    201 H           18.3641     2.1219    38.8239 H       2      m2     0.0530
    202 H           16.1385     1.4954    37.8758 H       2      m2     0.0530
    203 H           16.1831    -0.1237    38.8017 H       2      m2     0.0530
    204 O           24.2645   -25.5828    28.3312 O       2      m2    -0.2660
    205 C           23.0931   -24.6166    28.5874 C       2      m2     0.0270
    206 C           22.8911   -25.6211    27.6364 C       2      m2     0.0800
    207 C           23.0762   -25.3020    26.1566 C       2      m2     0.0270
    208 O           21.8087   -25.1410    25.5535 O       2      m2    -0.1595
    209 C           21.7359   -24.8591    24.2103 C       2      m2     0.0265
    210 C           20.5239   -24.6545    23.6587 C       2      m2    -0.1268
    211 C           20.3591   -24.3704    22.3582 C       2      m2    -0.1268
    212 C           21.4178   -24.2764    21.5373 C       2      m2     0.0000
    213 C           22.6355   -24.4700    22.0699 C       2      m2    -0.1268
    214 C           22.7877   -24.7536    23.3732 C       2      m2    -0.1268
    215 C           21.2450   -23.9478    20.0716 C       2      m2    -0.1060
    216 C           21.2654   -22.4475    19.8844 C       2      m2     0.0000
    217 C           20.1345   -21.7249    19.9279 C       2      m2    -0.1268
    218 C           20.1658   -20.3935    19.7683 C       2      m2    -0.1268
    219 C           21.3098   -19.7128    19.5610 C       2      m2     0.0265
    220 C           22.4358   -20.4537    19.5239 C       2      m2    -0.1268
    221 C           22.4171   -21.7868    19.6822 C       2      m2    -0.1268
    222 O           21.2457   -18.3484    19.4088 O       2      m2    -0.1595
    223 C           22.4374   -17.6220    19.1887 C       2      m2     0.0270
    224 C           22.1089   -16.1358    19.0928 C       2      m2     0.0800
    225 C           22.0637   -15.5206    17.8383 C       2      m2     0.0270
    226 O           23.3688   -15.3742    18.6422 O       2      m2    -0.2660
    227 H           22.7504   -24.7623    29.6112 H       2      m2     0.0530
    228 H           23.4065   -23.6164    28.2932 H       2      m2     0.0530
    229 H           22.3521   -26.5373    27.8979 H       2      m2     0.0530
    230 H           23.6638   -24.3657    26.0170 H       2      m2     0.0530
    231 H           23.6058   -26.1609    25.6827 H       2      m2     0.0530
    232 H           19.6298   -24.7219    24.3024 H       2      m2     0.1268
    233 H           19.3419   -24.2101    21.9642 H       2      m2     0.1268
    234 H           23.5288   -24.3923    21.4277 H       2      m2     0.1268
    235 H           23.8185   -24.8974    23.7338 H       2      m2     0.1268
    236 H           22.0469   -24.4275    19.4649 H       2      m2     0.0530
    237 H           20.2926   -24.3781    19.6855 H       2      m2     0.0530
    238 H           19.1674   -22.2263    20.0986 H       2      m2     0.1268
    239 H           19.2156   -19.8335    19.8102 H       2      m2     0.1268
    240 H           23.4198   -19.9859    19.3627 H       2      m2     0.1268
    241 H           23.3667   -22.3469    19.6475 H       2      m2     0.1268
    242 H           23.1252   -17.7676    20.0539 H       2      m2     0.0530
    243 H           22.9165   -17.9898    18.2525 H       2      m2     0.0530
    244 H           21.6597   -15.6544    19.9673 H       2      m2     0.0530
    245 H           21.6162   -14.5328    17.7347 H       2      m2     0.0530
    246 H           22.2846   -16.0772    16.9292 H       2      m2     0.0530
    247 O            2.0976   -15.2935    -2.9447 O       2      m2    -0.2660
    248 C            3.0001   -16.4506    -3.4115 C       2      m2     0.0270
    249 C            1.6320   -16.5672    -3.6737 C       2      m2     0.0800
    250 C            0.7539   -17.3837    -2.7313 C       2      m2     0.0270
    251 O            0.4853   -18.6406    -3.3179 O       2      m2    -0.1595
    252 C           -0.3046   -19.5406    -2.6435 C       2      m2     0.0265
    253 C           -0.5088   -20.7555    -3.1889 C       2      m2    -0.1268
    254 C           -1.2612   -21.6964    -2.5994 C       2      m2    -0.1268
    255 C           -1.8533   -21.4600    -1.4174 C       2      m2     0.0000
    256 C           -1.6560   -20.2568    -0.8538 C       2      m2    -0.1268
    257 C           -0.9004   -19.3233    -1.4536 C       2      m2    -0.1268
    258 C           -2.6963   -22.5160    -0.7391 C       2      m2    -0.1060
    259 C           -1.8173   -23.3759     0.1408 C       2      m2     0.0000
    260 C           -1.2379   -24.4914    -0.3316 C       2      m2    -0.1268
    261 C           -0.4538   -25.2422     0.4562 C       2      m2    -0.1268
    262 C           -0.2023   -24.9292     1.7423 C       2      m2     0.0265
    263 C           -0.7891   -23.8042     2.1986 C       2      m2    -0.1268
    264 C           -1.5761   -23.0448     1.4199 C       2      m2    -0.1268
    265 O            0.6146   -25.7576     2.4738 O       2      m2    -0.1595
    266 C            0.8851   -25.4428     3.8243 C       2      m2     0.0270
    267 C            1.8393   -26.4834     4.4010 C       2      m2     0.0800
    268 C            1.3389   -27.4904     5.2315 C       2      m2     0.0270
    269 O            1.9613   -26.2615     5.9196 O       2      m2    -0.2660
    270 H            3.6694   -16.0697    -4.1820 H       2      m2     0.0530
    271 H            3.4467   -16.9101    -2.5313 H       2      m2     0.0530
    272 H            1.2299   -16.3208    -4.6617 H       2      m2     0.0530
    273 H            1.2566   -17.5435    -1.7498 H       2      m2     0.0530
    274 H           -0.2029   -16.8303    -2.5860 H       2      m2     0.0530
    275 H           -0.0370   -20.9875    -4.1594 H       2      m2     0.1268
    276 H           -1.3897   -22.6740    -3.0929 H       2      m2     0.1268
    277 H           -2.1196   -20.0300     0.1209 H       2      m2     0.1268
    278 H           -0.7859   -18.3626    -0.9270 H       2      m2     0.1268
    279 H           -3.5072   -22.0443    -0.1381 H       2      m2     0.0530
    280 H           -3.2228   -23.1403    -1.4969 H       2      m2     0.0530
    281 H           -1.4036   -24.7966    -1.3781 H       2      m2     0.1268
    282 H            0.0050   -26.1522     0.0323 H       2      m2     0.1268
    283 H           -0.6402   -23.4652     3.2359 H       2      m2     0.1268
    284 H           -2.0296   -22.1313     1.8401 H       2      m2     0.1268
    285 H            1.3858   -24.4482     3.8797 H       2      m2     0.0530
    286 H           -0.0751   -25.4201     4.3889 H       2      m2     0.0530
    287 H            2.8298   -26.5770     3.9444 H       2      m2     0.0530
    288 H            1.9555   -28.3580     5.4636 H       2      m2     0.0530
    289 H            0.2837   -27.5306     5.4960 H       2      m2     0.0530
    290 O          -20.5299   -50.5672   -47.5720 O       2      m2    -0.2660
    291 C          -19.6827   -49.4000   -48.1116 C       2      m2     0.0270
    292 C          -19.5795   -49.6811   -46.7461 C       2      m2     0.0800
    293 C          -20.4005   -48.8706   -45.7487 C       2      m2     0.0270
    294 O          -19.5655   -47.9159   -45.1262 O       2      m2    -0.1595
    295 C          -20.0970   -47.0786   -44.1747 C       2      m2     0.0265
    296 C          -19.3035   -46.1371   -43.6278 C       2      m2    -0.1268
    297 C          -19.7387   -45.2755   -42.6965 C       2      m2    -0.1268
    298 C          -21.0091   -45.3179   -42.2632 C       2      m2     0.0000
    299 C          -21.8181   -46.2452   -42.8016 C       2      m2    -0.1268
    300 C          -21.3709   -47.1019   -43.7334 C       2      m2    -0.1268
    301 C          -21.5133   -44.3461   -41.2205 C       2      m2    -0.1060
    302 C          -22.0359   -43.1011   -41.9009 C       2      m2     0.0000
    303 C          -21.2353   -42.0498   -42.1395 C       2      m2    -0.1268
    304 C          -21.7082   -40.9536   -42.7510 C       2      m2    -0.1268
    305 C          -22.9880   -40.8425   -43.1570 C       2      m2     0.0265
    306 C          -23.7765   -41.9087   -42.9127 C       2      m2    -0.1268
    307 C          -23.3147   -43.0112   -42.3014 C       2      m2    -0.1268
    308 O          -23.3837   -39.6811   -43.7763 O       2      m2    -0.1595
    309 C          -24.7234   -39.5501   -44.2053 C       2      m2     0.0270
    310 C          -24.9009   -38.1998   -44.8919 C       2      m2     0.0800
    311 C          -25.5189   -37.1529   -44.2018 C       2      m2     0.0270
    312 O          -26.3988   -37.9715   -45.1645 O       2      m2    -0.2660
    313 H          -18.9481   -49.8062   -48.8059 H       2      m2     0.0530
    314 H          -20.3591   -48.6302   -48.4792 H       2      m2     0.0530
    315 H          -18.7420   -50.2703   -46.3591 H       2      m2     0.0530
    316 H          -21.2399   -48.3405   -46.2546 H       2      m2     0.0530
    317 H          -20.7987   -49.5724   -44.9796 H       2      m2     0.0530
    318 H          -18.2530   -46.0703   -43.9599 H       2      m2     0.1268
    319 H          -19.0430   -44.5243   -42.2874 H       2      m2     0.1268
    320 H          -22.8703   -46.3041   -42.4763 H       2      m2     0.1268
    321 H          -22.0960   -47.8317   -44.1268 H       2      m2     0.1268
    322 H          -22.3108   -44.8154   -40.6000 H       2      m2     0.0530
    323 H          -20.7011   -44.0889   -40.5025 H       2      m2     0.0530
    324 H          -20.1765   -42.0838   -41.8335 H       2      m2     0.1268
    325 H          -21.0198   -40.1095   -42.9298 H       2      m2     0.1268
    326 H          -24.8368   -41.9126   -43.2107 H       2      m2     0.1268
    327 H          -23.9998   -43.8582   -42.1283 H       2      m2     0.1268
    328 H          -24.9539   -40.3477   -44.9494 H       2      m2     0.0530
    329 H          -25.3961   -39.6443   -43.3222 H       2      m2     0.0530
    330 H          -24.3109   -38.0033   -45.7928 H       2      m2     0.0530
    331 H          -25.4509   -36.1357   -44.5858 H       2      m2     0.0530
    332 H          -25.9001   -37.2911   -43.1915 H       2      m2     0.0530
    333 O          -51.1674   -42.3690   -24.0039 O       2      m2    -0.2660
    334 C          -50.8716   -43.8795   -24.0500 C       2      m2     0.0270
    335 C          -50.6626   -43.2286   -22.8306 C       2      m2     0.0800
    336 C          -49.2565   -42.7742   -22.4535 C       2      m2     0.0270
    337 O          -48.7109   -43.6796   -21.5161 O       2      m2    -0.1595
    338 C          -47.4471   -43.4559   -21.0246 C       2      m2     0.0265
    339 C          -46.9174   -44.3554   -20.1727 C       2      m2    -0.1268
    340 C          -45.6906   -44.2201   -19.6478 C       2      m2    -0.1268
    341 C          -44.9255   -43.1606   -19.9569 C       2      m2     0.0000
    342 C          -45.4330   -42.2561   -20.8104 C       2      m2    -0.1268
    343 C          -46.6623   -42.4028   -21.3295 C       2      m2    -0.1268
    344 C          -43.5376   -43.0020   -19.3784 C       2      m2    -0.1060
    345 C          -42.5343   -43.6901   -20.2763 C       2      m2     0.0000
    346 C          -42.1994   -44.9768   -20.0887 C       2      m2    -0.1268
    347 C          -41.3140   -45.5790   -20.8965 C       2      m2    -0.1268
    348 C          -40.7198   -44.9442   -21.9257 C       2      m2     0.0265
    349 C          -41.0705   -43.6541   -22.1015 C       2      m2    -0.1268
    350 C          -41.9554   -43.0407   -21.2995 C       2      m2    -0.1268
    351 O          -39.8251   -45.6419   -22.7012 O       2      m2    -0.1595
    352 C          -39.1930   -44.9882   -23.7825 C       2      m2     0.0270
    353 C          -38.2846   -45.9773   -24.5054 C       2      m2     0.0800
    354 C          -36.9045   -45.9294   -24.2884 C       2      m2     0.0270
    355 O          -37.4404   -45.2139   -25.5422 O       2      m2    -0.2660
    356 H          -51.8091   -44.4038   -24.2311 H       2      m2     0.0530
    357 H          -50.0530   -44.0446   -24.7485 H       2      m2     0.0530
    358 H          -51.4143   -43.2764   -22.0362 H       2      m2     0.0530
    359 H          -48.5923   -42.7363   -23.3473 H       2      m2     0.0530
    360 H          -49.3339   -41.7630   -21.9906 H       2      m2     0.0530
    361 H          -47.5160   -45.2406   -19.8961 H       2      m2     0.1268
    362 H          -45.3094   -44.9910   -18.9578 H       2      m2     0.1268
    363 H          -44.8298   -41.3773   -21.0939 H       2      m2     0.1268
    364 H          -47.0061   -41.6188   -22.0226 H       2      m2     0.1268
    365 H          -43.2819   -41.9239   -19.2622 H       2      m2     0.0530
    366 H          -43.4946   -43.4229   -18.3477 H       2      m2     0.0530
    367 H          -42.6560   -45.5497   -19.2646 H       2      m2     0.1268
    368 H          -41.0637   -46.6378   -20.7107 H       2      m2     0.1268
    369 H          -40.6401   -43.0537   -22.9184 H       2      m2     0.1268
    370 H          -42.2116   -41.9845   -21.4882 H       2      m2     0.1268
    371 H          -39.9653   -44.6376   -24.5061 H       2      m2     0.0530
    372 H          -38.6134   -44.1210   -23.3910 H       2      m2     0.0530
    373 H          -38.7481   -46.8589   -24.9596 H       2      m2     0.0530
    374 H          -36.2755   -46.7575   -24.6128 H       2      m2     0.0530
    375 H          -36.4625   -45.1813   -23.6325 H       2      m2     0.0530
    376 O           44.4682   -26.6077   -15.9504 O       2      m2    -0.2660
    377 C           45.8462   -26.0981   -16.4114 C       2      m2     0.0270
    378 C           44.8913   -25.1329   -16.0784 C       2      m2     0.0800
    379 C           44.0702   -24.4768   -17.1834 C       2      m2     0.0270
    380 O           44.5848   -23.1866   -17.4416 O       2      m2    -0.1595
    381 C           43.9850   -22.4043   -18.3991 C       2      m2     0.0265
    382 C           44.5181   -21.1978   -18.6736 C       2      m2    -0.1268
    383 C           44.0016   -20.3708   -19.5947 C       2      m2    -0.1268
    384 C           42.9099   -20.7199   -20.2946 C       2      m2     0.0000
    385 C           42.3677   -21.9222   -20.0406 C       2      m2    -0.1268
    386 C           42.8940   -22.7413   -19.1163 C       2      m2    -0.1268
    387 C           42.3242   -19.7998   -21.3417 C       2      m2    -0.1060
    388 C           42.9781   -20.0732   -22.6773 C       2      m2     0.0000
    389 C           44.0797   -19.4087   -23.0623 C       2      m2    -0.1268
    390 C           44.6557   -19.6653   -24.2461 C       2      m2    -0.1268
    391 C           44.1763   -20.5876   -25.1033 C       2      m2     0.0265
    392 C           43.0721   -21.2475   -24.6990 C       2      m2    -0.1268
    393 C           42.4866   -20.9994   -23.5166 C       2      m2    -0.1268
    394 O           44.8330   -20.7834   -26.2946 O       2      m2    -0.1595
    395 C           44.3401   -21.7458   -27.2039 C       2      m2     0.0270
    396 C           45.2571   -21.8021   -28.4213 C       2      m2     0.0800
    397 C           44.8650   -21.1754   -29.6077 C       2      m2     0.0270
    398 O           44.6044   -22.6890   -29.4973 O       2      m2    -0.2660
    399 H           46.5863   -26.4058   -15.6736 H       2      m2     0.0530
    400 H           45.9964   -26.4100   -17.4436 H       2      m2     0.0530
    401 H           44.9053   -24.6492   -15.0965 H       2      m2     0.0530
    402 H           44.1082   -25.0750   -18.1227 H       2      m2     0.0530
    403 H           43.0177   -24.3914   -16.8259 H       2      m2     0.0530
    404 H           45.4171   -20.8765   -18.1196 H       2      m2     0.1268
    405 H           44.4837   -19.3963   -19.7778 H       2      m2     0.1268
    406 H           41.4755   -22.2463   -20.6021 H       2      m2     0.1268
    407 H           42.3923   -23.7105   -18.9673 H       2      m2     0.1268
    408 H           41.2209   -19.9378   -21.4122 H       2      m2     0.0530
    409 H           42.4648   -18.7346   -21.0470 H       2      m2     0.0530
    410 H           44.5206   -18.6446   -22.4008 H       2      m2     0.1268
    411 H           45.5600   -19.0986   -24.5279 H       2      m2     0.1268
    412 H           42.6089   -22.0220   -25.3304 H       2      m2     0.1268
    413 H           41.5869   -21.5699   -23.2306 H       2      m2     0.1268
    414 H           44.3475   -22.7503   -26.7204 H       2      m2     0.0530
    415 H           43.3010   -21.4685   -27.4949 H       2      m2     0.0530
    416 H           46.3001   -22.0938   -28.2622 H       2      m2     0.0530
    417 H           45.5931   -21.0134   -30.4017 H       2      m2     0.0530
    418 H           43.9043   -20.6697   -29.6873 H       2      m2     0.0530
    419 O          -45.4263    17.9351     6.2841 O       2      m2    -0.2660
    420 C          -43.9906    18.4910     6.2548 C       2      m2     0.0270
    421 C          -45.0324    19.4183     6.1598 C       2      m2     0.0800
    422 C          -45.4591    19.9302     4.7881 C       2      m2     0.0270
    423 O          -44.9297    21.2250     4.5896 O       2      m2    -0.1595
    424 C          -45.2010    21.8881     3.4169 C       2      m2     0.0265
    425 C          -44.6460    23.0995     3.2172 C       2      m2    -0.1268
    426 C          -44.8524    23.8153     2.1018 C       2      m2    -0.1268
    427 C          -45.6366    23.3431     1.1192 C       2      m2     0.0000
    428 C          -46.1935    22.1337     1.2963 C       2      m2    -0.1268
    429 C          -45.9792    21.4266     2.4171 C       2      m2    -0.1268
    430 C          -45.8693    24.1370    -0.1463 C       2      m2    -0.1060
    431 C          -44.7992    23.7980    -1.1593 C       2      m2     0.0000
    432 C          -43.6544    24.4968    -1.2232 C       2      m2    -0.1268
    433 C          -42.7089    24.1818    -2.1209 C       2      m2    -0.1268
    434 C          -42.8453    23.1651    -2.9943 C       2      m2     0.0265
    435 C          -43.9992    22.4721    -2.9136 C       2      m2    -0.1268
    436 C          -44.9529    22.7779    -2.0195 C       2      m2    -0.1268
    437 O          -41.8232    22.9150    -3.8783 O       2      m2    -0.1595
    438 C          -41.9536    21.8532    -4.8013 C       2      m2     0.0270
    439 C          -40.6821    21.7561    -5.6378 C       2      m2     0.0800
    440 C          -40.6765    22.2590    -6.9421 C       2      m2     0.0270
    441 O          -40.9101    20.7460    -6.7771 O       2      m2    -0.2660
    442 H          -43.5291    18.2909     7.2211 H       2      m2     0.0530
    443 H          -43.4951    18.1066     5.3648 H       2      m2     0.0530
    444 H          -45.3621    19.9797     7.0399 H       2      m2     0.0530
    445 H          -45.0910    19.2615     3.9764 H       2      m2     0.0530
    446 H          -46.5727    19.9781     4.7695 H       2      m2     0.0530
    447 H          -43.9939    23.5202     4.0021 H       2      m2     0.1268
    448 H          -44.3685    24.8001     1.9938 H       2      m2     0.1268
    449 H          -46.8368    21.7101     0.5068 H       2      m2     0.1268
    450 H          -46.4704    20.4431     2.4862 H       2      m2     0.1268
    451 H          -46.8810    23.9249    -0.5620 H       2      m2     0.0530
    452 H          -45.8693    25.2293     0.0733 H       2      m2     0.0530
    453 H          -43.4839    25.3379    -0.5310 H       2      m2     0.1268
    454 H          -41.7811    24.7794    -2.1433 H       2      m2     0.1268
    455 H          -44.2004    21.6217    -3.5839 H       2      m2     0.1268
    456 H          -45.8776    22.1773    -1.9914 H       2      m2     0.1268
    457 H          -42.0755    20.8935    -4.2471 H       2      m2     0.0530
    458 H          -42.8447    22.0405    -5.4432 H       2      m2     0.0530
    459 H          -39.7429    21.5441    -5.1170 H       2      m2     0.0530
    460 H          -39.7310    22.4016    -7.4642 H       2      m2     0.0530
    461 H          -41.5715    22.6956    -7.3819 H       2      m2     0.0530
    462 O          -17.1472    49.6889    23.4612 O       2      m2    -0.2660
    463 C          -17.6245    49.6825    21.9972 C       2      m2     0.0270
    464 C          -18.6097    49.7627    22.9857 C       2      m2     0.0800
    465 C          -19.3373    48.4964    23.4250 C       2      m2     0.0270
    466 O          -20.6172    48.4646    22.8276 O       2      m2    -0.1595
    467 C          -21.4571    47.4106    23.0968 C       2      m2     0.0265
    468 C          -22.6534    47.3646    22.4788 C       2      m2    -0.1268
    469 C          -23.5335    46.3723    22.6783 C       2      m2    -0.1268
    470 C          -23.2513    45.3641    23.5194 C       2      m2     0.0000
    471 C          -22.0603    45.3881    24.1399 C       2      m2    -0.1268
    472 C          -21.1876    46.3868    23.9318 C       2      m2    -0.1268
    473 C          -24.2317    44.2355    23.7454 C       2      m2    -0.1060
    474 C          -23.9871    43.1427    22.7294 C       2      m2     0.0000
    475 C          -24.6260    43.1342    21.5484 C       2      m2    -0.1268
    476 C          -24.3950    42.1638    20.6517 C       2      m2    -0.1268
    477 C          -23.5245    41.1599    20.8747 C       2      m2     0.0265
    478 C          -22.8895    41.1863    22.0639 C       2      m2    -0.1268
    479 C          -23.1124    42.1522    22.9693 C       2      m2    -0.1268
    480 O          -23.3516    40.2093    19.8973 O       2      m2    -0.1595
    481 C          -22.4435    39.1498    20.1185 C       2      m2     0.0270
    482 C          -22.4015    38.2582    18.8819 C       2      m2     0.0800
    483 C          -23.0875    37.0401    18.8882 C       2      m2     0.0270
    484 O          -21.5811    36.9959    19.2043 O       2      m2    -0.2660
    485 H          -17.2620    50.5911    21.5178 H       2      m2     0.0530
    486 H          -17.3477    48.7277    21.5533 H       2      m2     0.0530
    487 H          -19.0541    50.7265    23.2541 H       2      m2     0.0530
    488 H          -18.7750    47.5834    23.1224 H       2      m2     0.0530
    489 H          -19.4465    48.5291    24.5340 H       2      m2     0.0530
    490 H          -22.9205    48.1751    21.7788 H       2      m2     0.1268
    491 H          -24.4965    46.3873    22.1415 H       2      m2     0.1268
    492 H          -21.7905    44.5723    24.8314 H       2      m2     0.1268
    493 H          -20.2320    46.3337    24.4770 H       2      m2     0.1268
    494 H          -24.1363    43.8343    24.7803 H       2      m2     0.0530
    495 H          -25.2790    44.6092    23.6748 H       2      m2     0.0530
    496 H          -25.3475    43.9324    21.3074 H       2      m2     0.1268
    497 H          -24.9394    42.1904    19.6919 H       2      m2     0.1268
    498 H          -22.1572    40.4097    22.3353 H       2      m2     0.1268
    499 H          -22.5640    42.1307    23.9261 H       2      m2     0.1268
    500 H          -21.4214    39.5652    20.2785 H       2      m2     0.0530
    501 H          -22.7690    38.5771    21.0171 H       2      m2     0.0530
    502 H          -22.0667    38.7055    17.9406 H       2      m2     0.0530
    503 H          -23.2540    36.5067    17.9531 H       2      m2     0.0530
    504 H          -23.6301    36.7032    19.7698 H       2      m2     0.0530
    505 O           44.0502    36.4030     0.5756 O       2      m2    -0.2660
    506 C           45.3774    36.9617     0.0302 C       2      m2     0.0270
    507 C           44.9551    37.4325     1.2769 C       2      m2     0.0800
    508 C           44.2147    38.7628     1.3655 C       2      m2     0.0270
    509 O           45.1035    39.7600     1.8258 O       2      m2    -0.1595
    510 C           44.6424    41.0436     1.9942 C       2      m2     0.0265
    511 C           45.5128    41.9963     2.3818 C       2      m2    -0.1268
    512 C           45.1517    43.2747     2.5665 C       2      m2    -0.1268
    513 C           43.8819    43.6642     2.3682 C       2      m2     0.0000
    514 C           43.0003    42.7304     1.9745 C       2      m2    -0.1268
    515 C           43.3739    41.4539     1.7927 C       2      m2    -0.1268
    516 C           43.4651    45.1043     2.5645 C       2      m2    -0.1060
    517 C           43.6514    45.8650     1.2712 C       2      m2     0.0000
    518 C           44.8050    46.4932     0.9927 C       2      m2    -0.1268
    519 C           44.9615    47.1583    -0.1615 C       2      m2    -0.1268
    520 C           43.9922    47.2341    -1.0942 C       2      m2     0.0265
    521 C           42.8422    46.5946    -0.7996 C       2      m2    -0.1268
    522 C           42.6738    45.9257     0.3522 C       2      m2    -0.1268
    523 O           44.2424    47.9377    -2.2480 O       2      m2    -0.1595
    524 C           43.2342    48.0271    -3.2338 C       2      m2     0.0270
    525 C           43.7649    48.8192    -4.4241 C       2      m2     0.0800
    526 C           43.3811    50.1532    -4.5892 C       2      m2     0.0270
    527 O           42.6039    49.0969    -5.3964 O       2      m2    -0.2660
    528 H           46.0933    36.1425    -0.0260 H       2      m2     0.0530
    529 H           45.1642    37.5147    -0.8830 H       2      m2     0.0530
    530 H           45.3692    37.0158     2.2006 H       2      m2     0.0530
    531 H           43.8139    39.0676     0.3715 H       2      m2     0.0530
    532 H           43.3801    38.6445     2.0951 H       2      m2     0.0530
    533 H           46.5661    41.7145     2.5532 H       2      m2     0.1268
    534 H           45.9097    44.0108     2.8817 H       2      m2     0.1268
    535 H           41.9503    43.0154     1.7937 H       2      m2     0.1268
    536 H           42.5927    40.7486     1.4681 H       2      m2     0.1268
    537 H           42.4052    45.1633     2.9025 H       2      m2     0.0530
    538 H           44.0571    45.5730     3.3838 H       2      m2     0.0530
    539 H           45.6365    46.4630     1.7162 H       2      m2     0.1268
    540 H           45.9242    47.6625    -0.3548 H       2      m2     0.1268
    541 H           41.9935    46.5975    -1.5016 H       2      m2     0.1268
    542 H           41.7147    45.4157     0.5438 H       2      m2     0.1268
    543 H           42.9726    47.0037    -3.5901 H       2      m2     0.0530
    544 H           42.3383    48.5188    -2.7901 H       2      m2     0.0530
    545 H           44.6295    48.4163    -4.9613 H       2      m2     0.0530
    546 H           43.9188    50.7892    -5.2915 H       2      m2     0.0530
    547 H           42.6887    50.6303    -3.8978 H       2      m2     0.0530
    548 O           40.8781   -37.4218   -41.7575 O       2      m2    -0.2660
    549 C           40.5356   -37.7693   -43.2180 C       2      m2     0.0270
    550 C           40.1829   -38.7069   -42.2430 C       2      m2     0.0800
    551 C           41.1003   -39.8960   -41.9782 C       2      m2     0.0270
    552 O           40.5601   -41.0466   -42.5951 O       2      m2    -0.1595
    553 C           41.2210   -42.2454   -42.4741 C       2      m2     0.0265
    554 C           40.7243   -43.3233   -43.1118 C       2      m2    -0.1268
    555 C           41.3054   -44.5308   -43.0528 C       2      m2    -0.1268
    556 C           42.4288   -44.7171   -42.3410 C       2      m2     0.0000
    557 C           42.9437   -43.6528   -41.7036 C       2      m2    -0.1268
    558 C           42.3530   -42.4492   -41.7705 C       2      m2    -0.1268
    559 C           43.0977   -46.0715   -42.2745 C       2      m2    -0.1060
    560 C           44.0801   -46.2063   -43.4159 C       2      m2     0.0000
    561 C           43.7070   -46.7213   -44.5986 C       2      m2    -0.1268
    562 C           44.5854   -46.8288   -45.6065 C       2      m2    -0.1268
    563 C           45.8687   -46.4332   -45.4979 C       2      m2     0.0265
    564 C           46.2249   -45.9154   -44.3050 C       2      m2    -0.1268
    565 C           45.3548   -45.8028   -43.2887 C       2      m2    -0.1268
    566 O           46.6974   -46.5812   -46.5843 O       2      m2    -0.1595
    567 C           48.0462   -46.1726   -46.4839 C       2      m2     0.0270
    568 C           48.7410   -46.4015   -47.8221 C       2      m2     0.0800
    569 C           49.5834   -47.5058   -47.9801 C       2      m2     0.0270
    570 O           50.2514   -46.1586   -47.6483 O       2      m2    -0.2660
    571 H           39.7965   -37.0522   -43.5734 H       2      m2     0.0530
    572 H           41.4674   -37.8576   -43.7742 H       2      m2     0.0530
    573 H           39.1577   -38.7579   -41.8625 H       2      m2     0.0530
    574 H           42.1219   -39.7147   -42.3844 H       2      m2     0.0530
    575 H           41.1490   -40.0546   -40.8758 H       2      m2     0.0530
    576 H           39.8028   -43.2089   -43.7084 H       2      m2     0.1268
    577 H           40.8539   -45.3756   -43.5987 H       2      m2     0.1268
    578 H           43.8703   -43.7663   -41.1161 H       2      m2     0.1268
    579 H           42.8373   -41.6264   -41.2212 H       2      m2     0.1268
    580 H           43.6149   -46.2060   -41.2969 H       2      m2     0.0530
    581 H           42.3367   -46.8842   -42.3141 H       2      m2     0.0530
    582 H           42.6681   -47.0587   -44.7486 H       2      m2     0.1268
    583 H           44.2417   -47.2573   -46.5639 H       2      m2     0.1268
    584 H           47.2518   -45.5617   -44.1219 H       2      m2     0.1268
    585 H           45.6952   -45.3683   -42.3337 H       2      m2     0.1268
    586 H           48.0869   -45.0819   -46.2568 H       2      m2     0.0530
    587 H           48.5391   -46.7519   -45.6699 H       2      m2     0.0530
    588 H           48.3614   -45.8595   -48.6942 H       2      m2     0.0530
    589 H           49.9022   -47.8063   -48.9774 H       2      m2     0.0530
    590 H           49.7738   -48.1920   -47.1566 H       2      m2     0.0530
    591 O           26.6610   -41.1007     5.2837 O       2      m2    -0.2660
    592 C           26.4830   -40.1625     4.0758 C       2      m2     0.0270
    593 C           25.3250   -40.5423     4.7606 C       2      m2     0.0800
    594 C           24.4816   -41.6955     4.2273 C       2      m2     0.0270
    595 O           23.3449   -41.1749     3.5692 O       2      m2    -0.1595
    596 C           22.4325   -42.0427     3.0186 C       2      m2     0.0265
    597 C           21.3812   -41.5333     2.3472 C       2      m2    -0.1268
    598 C           20.4454   -42.3049     1.7746 C       2      m2    -0.1268
    599 C           20.5206   -43.6436     1.8492 C       2      m2     0.0000
    600 C           21.5653   -44.1710     2.5083 C       2      m2    -0.1268
    601 C           22.4959   -43.3882     3.0771 C       2      m2    -0.1268
    602 C           19.4764   -44.5236     1.2000 C       2      m2    -0.1060
    603 C           19.8795   -44.8167    -0.2275 C       2      m2     0.0000
    604 C           19.4870   -44.0249    -1.2385 C       2      m2    -0.1268
    605 C           19.8573   -44.2905    -2.5000 C       2      m2    -0.1268
    606 C           20.6313   -45.3446    -2.8240 C       2      m2     0.0265
    607 C           21.0189   -46.1267    -1.7963 C       2      m2    -0.1268
    608 C           20.6547   -45.8711    -0.5296 C       2      m2    -0.1268
    609 O           20.9613   -45.5379    -4.1441 O       2      m2    -0.1595
    610 C           21.7705   -46.6405    -4.4985 C       2      m2     0.0270
    611 C           22.0256   -46.6134    -6.0018 C       2      m2     0.0800
    612 C           21.3104   -47.4767    -6.8369 C       2      m2     0.0270
    613 O           22.7220   -47.9232    -6.4137 O       2      m2    -0.2660
    614 H           26.9643   -39.2134     4.3090 H       2      m2     0.0530
    615 H           26.8090   -40.6924     3.1824 H       2      m2     0.0530
    616 H           24.8698   -39.8757     5.5002 H       2      m2     0.0530
    617 H           25.0608   -42.3191     3.5082 H       2      m2     0.0530
    618 H           24.1563   -42.3145     5.0955 H       2      m2     0.0530
    619 H           21.2862   -40.4368     2.2632 H       2      m2     0.1268
    620 H           19.6088   -41.8303     1.2354 H       2      m2     0.1268
    621 H           21.6646   -45.2669     2.5827 H       2      m2     0.1268
    622 H           23.3223   -43.8967     3.5984 H       2      m2     0.1268
    623 H           19.3512   -45.4712     1.7723 H       2      m2     0.0530
    624 H           18.4774   -44.0314     1.2321 H       2      m2     0.0530
    625 H           18.8555   -43.1444    -1.0345 H       2      m2     0.1268
    626 H           19.5149   -43.6167    -3.3045 H       2      m2     0.1268
    627 H           21.6557   -47.0099    -1.9620 H       2      m2     0.1268
    628 H           21.0018   -46.5396     0.2762 H       2      m2     0.1268
    629 H           22.7545   -46.5596    -3.9807 H       2      m2     0.0530
    630 H           21.2540   -47.5797    -4.1945 H       2      m2     0.0530
    631 H           22.5554   -45.7489    -6.4146 H       2      m2     0.0530
    632 H           21.3139   -47.3156    -7.9143 H       2      m2     0.0530
    633 H           20.5927   -48.1875    -6.4310 H       2      m2     0.0530
    634 O          -22.0421    24.8941   -29.0477 O       2      m2    -0.2660
    635 C          -22.1261    25.9833   -27.9626 C       2      m2     0.0270
    636 C          -21.0258    25.1225   -27.9140 C       2      m2     0.0800
    637 C          -21.0535    23.9210   -26.9752 C       2      m2     0.0270
    638 O          -20.2739    24.2061   -25.8318 O       2      m2    -0.1595
    639 C          -20.1471    23.2515   -24.8514 C       2      m2     0.0265
    640 C          -19.4458    23.5553   -23.7418 C       2      m2    -0.1268
    641 C          -19.2744    22.6875   -22.7336 C       2      m2    -0.1268
    642 C          -19.8062    21.4556   -22.7912 C       2      m2     0.0000
    643 C          -20.5150    21.1359   -23.8863 C       2      m2    -0.1268
    644 C          -20.6799    22.0134   -24.8889 C       2      m2    -0.1268
    645 C          -19.6272    20.4720   -21.6569 C       2      m2    -0.1060
    646 C          -20.7435    20.6502   -20.6528 C       2      m2     0.0000
    647 C          -20.6190    21.4938   -19.6154 C       2      m2    -0.1268
    648 C          -21.6191    21.6495   -18.7354 C       2      m2    -0.1268
    649 C          -22.7868    20.9850   -18.8366 C       2      m2     0.0265
    650 C          -22.8958    20.1453   -19.8859 C       2      m2    -0.1268
    651 C          -21.9017    19.9809   -20.7732 C       2      m2    -0.1268
    652 O          -23.7559    21.2087   -17.8881 O       2      m2    -0.1595
    653 C          -24.9844    20.5171   -17.9806 C       2      m2     0.0270
    654 C          -25.8987    20.9636   -16.8446 C       2      m2     0.0800
    655 C          -26.0627    20.1382   -15.7283 C       2      m2     0.0270
    656 O          -27.1444    20.0592   -16.8214 O       2      m2    -0.2660
    657 H          -22.0341    26.9542   -28.4481 H       2      m2     0.0530
    658 H          -23.0146    25.7971   -27.3616 H       2      m2     0.0530
    659 H          -20.0573    25.4309   -28.3208 H       2      m2     0.0530
    660 H          -22.0938    23.6855   -26.6531 H       2      m2     0.0530
    661 H          -20.6138    23.0511   -27.5162 H       2      m2     0.0530
    662 H          -18.9948    24.5592   -23.6575 H       2      m2     0.1268
    663 H          -18.6924    22.9943   -21.8488 H       2      m2     0.1268
    664 H          -20.9737    20.1360   -23.9648 H       2      m2     0.1268
    665 H          -21.2753    21.6762   -25.7520 H       2      m2     0.1268
    666 H          -19.6128    19.4269   -22.0426 H       2      m2     0.0530
    667 H          -18.6354    20.6151   -21.1699 H       2      m2     0.0530
    668 H          -19.6875    22.0686   -19.4825 H       2      m2     0.1268
    669 H          -21.4797    22.3519   -17.8954 H       2      m2     0.1268
    670 H          -23.8140    19.5607   -20.0540 H       2      m2     0.1268
    671 H          -22.0423    19.2845   -21.6170 H       2      m2     0.1268
    672 H          -25.4823    20.7737   -18.9445 H       2      m2     0.0530
    673 H          -24.7865    19.4218   -17.9315 H       2      m2     0.0530
    674 H          -26.1878    22.0188   -16.8061 H       2      m2     0.0530
    675 H          -26.5225    20.5346   -14.8238 H       2      m2     0.0530
    676 H          -25.5702    19.1694   -15.6663 H       2      m2     0.0530
    677 O          -28.5796   -18.7757    -2.0881 O       2      m2    -0.2660
    678 C          -27.4474   -17.7464    -1.9153 C       2      m2     0.0270
    679 C          -27.2287   -18.7836    -2.8267 C       2      m2     0.0800
    680 C          -26.4341   -20.0104    -2.3914 C       2      m2     0.0270
    681 O          -25.1225   -19.9227    -2.9093 O       2      m2    -0.1595
    682 C          -24.2299   -20.9351    -2.6501 C       2      m2     0.0265
    683 C          -22.9671   -20.8139    -3.1039 C       2      m2    -0.1268
    684 C          -22.0297   -21.7499    -2.8941 C       2      m2    -0.1268
    685 C          -22.3184   -22.8683    -2.2091 C       2      m2     0.0000
    686 C          -23.5704   -23.0045    -1.7421 C       2      m2    -0.1268
    687 C          -24.5000   -22.0604    -1.9583 C       2      m2    -0.1268
    688 C          -21.2675   -23.9261    -1.9586 C       2      m2    -0.1060
    689 C          -20.5312   -23.6130    -0.6756 C       2      m2     0.0000
    690 C          -19.4203   -22.8586    -0.6765 C       2      m2    -0.1268
    691 C          -18.7800   -22.5810     0.4689 C       2      m2    -0.1268
    692 C          -19.2038   -23.0304     1.6662 C       2      m2     0.0265
    693 C          -20.3225   -23.7831     1.6488 C       2      m2    -0.1268
    694 C          -20.9720   -24.0678     0.5088 C       2      m2    -0.1268
    695 O          -18.4839   -22.6948     2.7877 O       2      m2    -0.1595
    696 C          -18.9156   -23.1609     4.0497 C       2      m2     0.0270
    697 C          -17.9811   -22.6252     5.1293 C       2      m2     0.0800
    698 C          -17.0112   -23.4679     5.6800 C       2      m2     0.0270
    699 O          -18.3239   -23.3040     6.4680 O       2      m2    -0.2660
    700 H          -27.8088   -16.7814    -2.2685 H       2      m2     0.0530
    701 H          -27.0835   -17.8097    -0.8912 H       2      m2     0.0530
    702 H          -27.3751   -18.6241    -3.8998 H       2      m2     0.0530
    703 H          -26.3795   -20.0815    -1.2808 H       2      m2     0.0530
    704 H          -26.9380   -20.9130    -2.8088 H       2      m2     0.0530
    705 H          -22.6916   -19.9074    -3.6702 H       2      m2     0.1268
    706 H          -21.0117   -21.5936    -3.2878 H       2      m2     0.1268
    707 H          -23.8417   -23.9061    -1.1676 H       2      m2     0.1268
    708 H          -25.5028   -22.2455    -1.5420 H       2      m2     0.1268
    709 H          -21.7333   -24.9367    -1.9043 H       2      m2     0.0530
    710 H          -20.5571   -23.9800    -2.8152 H       2      m2     0.0530
    711 H          -19.0275   -22.4589    -1.6261 H       2      m2     0.1268
    712 H          -17.8700   -21.9577     0.4281 H       2      m2     0.1268
    713 H          -20.7472   -24.1929     2.5787 H       2      m2     0.1268
    714 H          -21.8854   -24.6848     0.5488 H       2      m2     0.1268
    715 H          -19.9400   -22.7730     4.2573 H       2      m2     0.0530
    716 H          -18.9227   -24.2750     4.0398 H       2      m2     0.0530
    717 H          -17.9134   -21.5397     5.2538 H       2      m2     0.0530
    718 H          -16.2025   -23.0470     6.2763 H       2      m2     0.0530
    719 H          -16.9274   -24.5085     5.3712 H       2      m2     0.0530
    720 O           45.8500    26.5049    16.1407 O       2      m2    -0.2660
    721 C           47.0271    26.2830    17.1084 C       2      m2     0.0270
    722 C           46.4482    25.1439    16.5414 C       2      m2     0.0800
    723 C           45.4064    24.3589    17.3313 C       2      m2     0.0270
    724 O           46.0076    23.1991    17.8695 O       2      m2    -0.1595
    725 C           45.2442    22.3312    18.6130 C       2      m2     0.0265
    726 C           45.8415    21.2574    19.1656 C       2      m2    -0.1268
    727 C           45.1756    20.3614    19.9090 C       2      m2    -0.1268
    728 C           43.8596    20.5019    20.1369 C       2      m2     0.0000
    729 C           43.2472    21.5701    19.6003 C       2      m2    -0.1268
    730 C           43.9247    22.4604    18.8582 C       2      m2    -0.1268
    731 C           43.1003    19.5032    20.9807 C       2      m2    -0.1060
    732 C           43.1562    19.9224    22.4324 C       2      m2     0.0000
    733 C           44.1362    19.4933    23.2439 C       2      m2    -0.1268
    734 C           44.1798    19.8781    24.5280 C       2      m2    -0.1268
    735 C           43.2638    20.7033    25.0713 C       2      m2     0.0265
    736 C           42.2893    21.1272    24.2413 C       2      m2    -0.1268
    737 C           42.2350    20.7488    22.9544 C       2      m2    -0.1268
    738 O           43.3891    21.0446    26.3967 O       2      m2    -0.1595
    739 C           42.4344    21.9074    26.9801 C       2      m2     0.0270
    740 C           42.8121    22.1633    28.4354 C       2      m2     0.0800
    741 C           42.1265    21.4925    29.4524 C       2      m2     0.0270
    742 O           41.6633    22.9236    29.1229 O       2      m2    -0.2660
    743 H           47.9207    26.7170    16.6614 H       2      m2     0.0530
    744 H           46.7284    26.6361    18.0940 H       2      m2     0.0530
    745 H           46.9084    24.6554    15.6765 H       2      m2     0.0530
    746 H           44.9892    24.9691    18.1651 H       2      m2     0.0530
    747 H           44.5928    24.0629    16.6290 H       2      m2     0.0530
    748 H           46.9229    21.1089    19.0016 H       2      m2     0.1268
    749 H           45.7194    19.5034    20.3379 H       2      m2     0.1268
    750 H           42.1687    21.7228    19.7734 H       2      m2     0.1268
    751 H           43.3514    23.3098    18.4544 H       2      m2     0.1268
    752 H           42.0432    19.4236    20.6382 H       2      m2     0.0530
    753 H           43.5247    18.4812    20.8512 H       2      m2     0.0530
    754 H           44.9171    18.8190    22.8548 H       2      m2     0.1268
    755 H           45.0007    19.5045    25.1643 H       2      m2     0.1268
    756 H           41.4974    21.8067    24.5936 H       2      m2     0.1268
    757 H           41.4192    21.1269    22.3155 H       2      m2     0.1268
    758 H           42.4430    22.8854    26.4450 H       2      m2     0.0530
    759 H           41.4275    21.4370    26.9021 H       2      m2     0.0530
    760 H           43.7714    22.6507    28.6362 H       2      m2     0.0530
    761 H           42.5265    21.4899    30.4657 H       2      m2     0.0530
    762 H           41.3092    20.8098    29.2262 H       2      m2     0.0530
    763 O           21.9747    14.5552    42.3807 O       2      m2    -0.2660
    764 C           21.5698    15.4223    41.1743 C       2      m2     0.0270
    765 C           22.8171    15.6795    41.7509 C       2      m2     0.0800
    766 C           22.9584    16.8155    42.7585 C       2      m2     0.0270
    767 O           23.5576    17.9272    42.1250 O       2      m2    -0.1595
    768 C           23.7942    19.0678    42.8542 C       2      m2     0.0265
    769 C           24.3162    20.1390    42.2255 C       2      m2    -0.1268
    770 C           24.5756    21.2936    42.8569 C       2      m2    -0.1268
    771 C           24.3201    21.4306    44.1682 C       2      m2     0.0000
    772 C           23.7927    20.3760    44.8115 C       2      m2    -0.1268
    773 C           23.5372    19.2256    44.1684 C       2      m2    -0.1268
    774 C           24.6000    22.7301    44.8886 C       2      m2    -0.1060
    775 C           23.3871    23.6285    44.7995 C       2      m2     0.0000
    776 C           23.2410    24.5032    43.7912 C       2      m2    -0.1268
    777 C           22.1569    25.2896    43.7184 C       2      m2    -0.1268
    778 C           21.1673    25.2502    44.6318 C       2      m2     0.0265
    779 C           21.3289    24.3639    45.6350 C       2      m2    -0.1268
    780 C           22.4095    23.5716    45.7187 C       2      m2    -0.1268
    781 O           20.0933    26.0934    44.4755 O       2      m2    -0.1595
    782 C           19.0493    26.0643    45.4271 C       2      m2     0.0270
    783 C           17.9656    27.0545    45.0138 C       2      m2     0.0800
    784 C           17.8800    28.2907    45.6608 C       2      m2     0.0270
    785 O           16.9392    27.1763    46.1548 O       2      m2    -0.2660
    786 H           21.4994    14.7762    40.3000 H       2      m2     0.0530
    787 H           20.6905    16.0013    41.4513 H       2      m2     0.0530
    788 H           23.7317    15.2735    41.3070 H       2      m2     0.0530
    789 H           21.9660    17.1217    43.1620 H       2      m2     0.0530
    790 H           23.6160    16.4618    43.5863 H       2      m2     0.0530
    791 H           24.5383    20.0650    41.1468 H       2      m2     0.1268
    792 H           25.0005    22.1374    42.2885 H       2      m2     0.1268
    793 H           23.5617    20.4546    45.8871 H       2      m2     0.1268
    794 H           23.1036    18.4078    44.7655 H       2      m2     0.1268
    795 H           24.8663    22.5388    45.9534 H       2      m2     0.0530
    796 H           25.4933    23.2329    44.4522 H       2      m2     0.0530
    797 H           24.0165    24.5779    43.0109 H       2      m2     0.1268
    798 H           22.0722    25.9963    42.8747 H       2      m2     0.1268
    799 H           20.5714    24.2570    46.4275 H       2      m2     0.1268
    800 H           22.4922    22.8600    46.5575 H       2      m2     0.1268
    801 H           18.5956    25.0461    45.4482 H       2      m2     0.0530
    802 H           19.4665    26.3185    46.4284 H       2      m2     0.0530
    803 H           17.4603    26.8890    44.0569 H       2      m2     0.0530
    804 H           17.2698    29.0854    45.2333 H       2      m2     0.0530
    805 H           18.5566    28.5498    46.4733 H       2      m2     0.0530
    806 O           15.2163   -43.2688   -40.6096 O       2      m2    -0.2660
    807 C           15.7779   -44.6986   -40.5025 C       2      m2     0.0270
    808 C           16.5693   -43.6658   -39.9913 C       2      m2     0.0800
    809 C           17.6924   -43.0874   -40.8456 C       2      m2     0.0270
    810 O           18.9289   -43.6076   -40.4022 O       2      m2    -0.1595
    811 C           20.0868   -43.2090   -41.0261 C       2      m2     0.0265
    812 C           21.2538   -43.7533   -40.6297 C       2      m2    -0.1268
    813 C           22.4303   -43.4267   -41.1847 C       2      m2    -0.1268
    814 C           22.4932   -42.5256   -42.1784 C       2      m2     0.0000
    815 C           21.3395   -41.9768   -42.5928 C       2      m2    -0.1268
    816 C           20.1679   -42.3120   -42.0296 C       2      m2    -0.1268
    817 C           23.8126   -42.1563   -42.8178 C       2      m2    -0.1060
    818 C           24.0964   -43.0946   -43.9690 C       2      m2     0.0000
    819 C           24.7837   -44.2335   -43.7859 C       2      m2    -0.1268
    820 C           25.0226   -45.0620   -44.8133 C       2      m2    -0.1268
    821 C           24.5950   -44.8094   -46.0657 C       2      m2     0.0265
    822 C           23.9036   -43.6636   -46.2305 C       2      m2    -0.1268
    823 C           23.6583   -42.8264   -45.2100 C       2      m2    -0.1268
    824 O           24.8862   -45.7166   -47.0562 O       2      m2    -0.1595
    825 C           24.4458   -45.4634   -48.3746 C       2      m2     0.0270
    826 C           24.8558   -46.6259   -49.2727 C       2      m2     0.0800
    827 C           25.9578   -46.4846   -50.1212 C       2      m2     0.0270
    828 O           24.5662   -46.2511   -50.7377 O       2      m2    -0.2660
    829 H           15.1320   -45.2680   -39.8351 H       2      m2     0.0530
    830 H           15.9312   -45.0803   -41.5105 H       2      m2     0.0530
    831 H           16.5807   -43.4501   -38.9181 H       2      m2     0.0530
    832 H           17.5558   -43.3478   -41.9203 H       2      m2     0.0530
    833 H           17.6882   -41.9801   -40.7162 H       2      m2     0.0530
    834 H           21.2420   -44.4993   -39.8162 H       2      m2     0.1268
    835 H           23.3527   -43.9082   -40.8199 H       2      m2     0.1268
    836 H           21.3515   -41.2391   -43.4127 H       2      m2     0.1268
    837 H           19.2664   -41.8188   -42.4261 H       2      m2     0.1268
    838 H           23.7952   -41.0998   -43.1710 H       2      m2     0.0530
    839 H           24.6346   -42.1974   -42.0668 H       2      m2     0.0530
    840 H           25.1560   -44.4961   -42.7818 H       2      m2     0.1268
    841 H           25.5913   -45.9889   -44.6238 H       2      m2     0.1268
    842 H           23.5107   -43.3730   -47.2175 H       2      m2     0.1268
    843 H           23.0842   -41.9032   -45.3966 H       2      m2     0.1268
    844 H           23.3332   -45.3945   -48.3868 H       2      m2     0.0530
    845 H           24.8927   -44.5055   -48.7267 H       2      m2     0.0530
    846 H           24.4525   -47.6170   -49.0415 H       2      m2     0.0530
    847 H           26.3950   -47.3638   -50.5930 H       2      m2     0.0530
    848 H           26.5138   -45.5501   -50.1723 H       2      m2     0.0530
    849 O           48.5146   -19.5596   -49.6312 O       2      m2    -0.2660
    850 C           47.5115   -18.4852   -49.1721 C       2      m2     0.0270
    851 C           48.3690   -19.0096   -48.2005 C       2      m2     0.0800
    852 C           47.8755   -20.1279   -47.2885 C       2      m2     0.0270
    853 O           47.5517   -19.5877   -46.0238 O       2      m2    -0.1595
    854 C           47.0950   -20.4246   -45.0339 C       2      m2     0.0265
    855 C           46.7385   -19.8894   -43.8500 C       2      m2    -0.1268
    856 C           46.2787   -20.6294   -42.8302 C       2      m2    -0.1268
    857 C           46.1526   -21.9609   -42.9513 C       2      m2     0.0000
    858 C           46.4962   -22.5128   -44.1267 C       2      m2    -0.1268
    859 C           46.9549   -21.7614   -45.1402 C       2      m2    -0.1268
    860 C           45.6270   -22.8042   -41.8117 C       2      m2    -0.1060
    861 C           44.1201   -22.8910   -41.9006 C       2      m2     0.0000
    862 C           43.3333   -21.9980   -41.2788 C       2      m2    -0.1268
    863 C           41.9977   -22.0805   -41.3713 C       2      m2    -0.1268
    864 C           41.3760   -23.0425   -42.0806 C       2      m2     0.0265
    865 C           42.1814   -23.9281   -42.7012 C       2      m2    -0.1268
    866 C           43.5193   -23.8560   -42.6159 C       2      m2    -0.1268
    867 O           40.0022   -23.0479   -42.1194 O       2      m2    -0.1595
    868 C           39.3369   -24.0523   -42.8576 C       2      m2     0.0270
    869 C           37.8317   -23.8198   -42.7781 C       2      m2     0.0800
    870 C           37.0585   -24.6056   -41.9186 C       2      m2     0.0270
    871 O           37.1066   -25.0280   -43.3985 O       2      m2    -0.2660
    872 H           47.7639   -17.5499   -49.6703 H       2      m2     0.0530
    873 H           46.5056   -18.8788   -49.3080 H       2      m2     0.0530
    874 H           49.2722   -18.4679   -47.9019 H       2      m2     0.0530
    875 H           46.9715   -20.6232   -47.7115 H       2      m2     0.0530
    876 H           48.7006   -20.8690   -47.1749 H       2      m2     0.0530
    877 H           46.8268   -18.7977   -43.7131 H       2      m2     0.1268
    878 H           45.9997   -20.1344   -41.8853 H       2      m2     0.1268
    879 H           46.3978   -23.6025   -44.2655 H       2      m2     0.1268
    880 H           47.2142   -22.2883   -46.0721 H       2      m2     0.1268
    881 H           46.0784   -23.8225   -41.8366 H       2      m2     0.0530
    882 H           45.9378   -22.3732   -40.8324 H       2      m2     0.0530
    883 H           43.7850   -21.1852   -40.6864 H       2      m2     0.1268
    884 H           41.3840   -21.3283   -40.8461 H       2      m2     0.1268
    885 H           41.7653   -24.7484   -43.3071 H       2      m2     0.1268
    886 H           44.1340   -24.6029   -43.1460 H       2      m2     0.1268
    887 H           39.6395   -23.9867   -43.9286 H       2      m2     0.0530
    888 H           39.6131   -25.0484   -42.4420 H       2      m2     0.0530
    889 H           37.4372   -22.8831   -43.1847 H       2      m2     0.0530
    890 H           36.0373   -24.3082   -41.6834 H       2      m2     0.0530
    891 H           37.5072   -25.3992   -41.3235 H       2      m2     0.0530
    892 O          -46.7810    39.7113   -16.3501 O       2      m2    -0.2660
    893 C          -46.1185    38.8707   -17.4572 C       2      m2     0.0270
    894 C          -45.3271    39.8432   -16.8392 C       2      m2     0.0800
    895 C          -45.1510    41.2031   -17.5065 C       2      m2     0.0270
    896 O          -43.8840    41.2548   -18.1296 O       2      m2    -0.1595
    897 C          -43.5056    42.4014   -18.7860 C       2      m2     0.0265
    898 C          -42.3178    42.4189   -19.4218 C       2      m2    -0.1268
    899 C          -41.8705    43.4921   -20.0904 C       2      m2    -0.1268
    900 C          -42.6039    44.6153   -20.1540 C       2      m2     0.0000
    901 C          -43.7946    44.6154   -19.5324 C       2      m2    -0.1268
    902 C          -44.2317    43.5347   -18.8666 C       2      m2    -0.1268
    903 C          -42.1139    45.8281   -20.9123 C       2      m2    -0.1060
    904 C          -42.5599    45.7368   -22.3541 C       2      m2     0.0000
    905 C          -41.7912    45.1488   -23.2849 C       2      m2    -0.1268
    906 C          -42.2008    45.0666   -24.5594 C       2      m2    -0.1268
    907 C          -43.3848    45.5566   -24.9757 C       2      m2     0.0265
    908 C          -44.1451    46.1403   -24.0273 C       2      m2    -0.1268
    909 C          -43.7459    46.2286   -22.7486 C       2      m2    -0.1268
    910 O          -43.7216    45.4264   -26.3018 O       2      m2    -0.1595
    911 C          -44.9592    45.9375   -26.7526 C       2      m2     0.0270
    912 C          -45.1150    45.6364   -28.2395 C       2      m2     0.0800
    913 C          -44.8955    46.6524   -29.1742 C       2      m2     0.0270
    914 O          -46.3559    46.3765   -28.7714 O       2      m2    -0.2660
    915 H          -46.0719    37.8369   -17.1167 H       2      m2     0.0530
    916 H          -46.6339    39.0751   -18.3941 H       2      m2     0.0530
    917 H          -44.6265    39.5700   -16.0436 H       2      m2     0.0530
    918 H          -45.9384    41.3796   -18.2748 H       2      m2     0.0530
    919 H          -45.2067    41.9854   -16.7142 H       2      m2     0.0530
    920 H          -41.6873    41.5134   -19.3931 H       2      m2     0.1268
    921 H          -40.8907    43.4460   -20.5940 H       2      m2     0.1268
    922 H          -44.4281    45.5173   -19.5705 H       2      m2     0.1268
    923 H          -45.2189    43.6134   -18.3844 H       2      m2     0.1268
    924 H          -42.4964    46.7641   -20.4443 H       2      m2     0.0530
    925 H          -41.0043    45.9050   -20.8493 H       2      m2     0.0530
    926 H          -40.8129    44.7253   -23.0031 H       2      m2     0.1268
    927 H          -41.5412    44.5761   -25.2961 H       2      m2     0.1268
    928 H          -45.1306    46.5673   -24.2712 H       2      m2     0.1268
    929 H          -44.4070    46.7123   -22.0099 H       2      m2     0.1268
    930 H          -45.7898    45.4297   -26.2094 H       2      m2     0.0530
    931 H          -44.9889    47.0343   -26.5586 H       2      m2     0.0530
    932 H          -45.1302    44.5865   -28.5493 H       2      m2     0.0530
    933 H          -44.7814    46.4038   -30.2286 H       2      m2     0.0530
    934 H          -44.6407    47.6629   -28.8591 H       2      m2     0.0530
    935 O           19.9335    19.7380    15.0242 O       2      m2    -0.2660
    936 C           21.1012    18.9094    15.5910 C       2      m2     0.0270
    937 C           19.9228    18.9423    16.3423 C       2      m2     0.0800
    938 C           19.8028    19.9179    17.5082 C       2      m2     0.0270
    939 O           19.9899    19.2181    18.7213 O       2      m2    -0.1595
    940 C           19.9106    19.9032    19.9100 C       2      m2     0.0265
    941 C           20.1444    19.2354    21.0566 C       2      m2    -0.1268
    942 C           20.0929    19.8241    22.2606 C       2      m2    -0.1268
    943 C           19.8003    21.1299    22.3735 C       2      m2     0.0000
    944 C           19.5710    21.8150    21.2412 C       2      m2    -0.1268
    945 C           19.6258    21.2146    20.0417 C       2      m2    -0.1268
    946 C           19.7483    21.8064    23.7247 C       2      m2    -0.1060
    947 C           21.1224    22.3255    24.0831 C       2      m2     0.0000
    948 C           21.9954    21.5696    24.7685 C       2      m2    -0.1268
    949 C           23.2146    22.0379    25.0739 C       2      m2    -0.1268
    950 C           23.6310    23.2688    24.7178 C       2      m2     0.0265
    951 C           22.7430    24.0124    24.0273 C       2      m2    -0.1268
    952 C           21.5200    23.5547    23.7158 C       2      m2    -0.1268
    953 O           24.8982    23.6637    25.0740 O       2      m2    -0.1595
    954 C           25.3473    24.9526    24.7091 C       2      m2     0.0270
    955 C           26.7861    25.1352    25.1806 C       2      m2     0.0800
    956 C           27.0434    25.8897    26.3289 C       2      m2     0.0270
    957 O           27.1966    26.6045    24.9737 O       2      m2    -0.2660
    958 H           21.2886    18.0782    14.9123 H       2      m2     0.0530
    959 H           21.9260    19.5866    15.8061 H       2      m2     0.0530
    960 H           19.2037    18.1185    16.2893 H       2      m2     0.0530
    961 H           20.5659    20.7266    17.4368 H       2      m2     0.0530
    962 H           18.7777    20.3556    17.4870 H       2      m2     0.0530
    963 H           20.3896    18.1605    21.0039 H       2      m2     0.1268
    964 H           20.2966    19.2262    23.1643 H       2      m2     0.1268
    965 H           19.3362    22.8913    21.2946 H       2      m2     0.1268
    966 H           19.4268    21.8448    19.1606 H       2      m2     0.1268
    967 H           19.0066    22.6378    23.7188 H       2      m2     0.0530
    968 H           19.3822    21.0969    24.5018 H       2      m2     0.0530
    969 H           21.7127    20.5516    25.0838 H       2      m2     0.1268
    970 H           23.9046    21.3873    25.6385 H       2      m2     0.1268
    971 H           22.9937    25.0305    23.6901 H       2      m2     0.1268
    972 H           20.8318    24.2012    23.1456 H       2      m2     0.1268
    973 H           25.3340    25.0489    23.5985 H       2      m2     0.0530
    974 H           24.6738    25.7126    25.1674 H       2      m2     0.0530
    975 H           27.5467    24.4615    24.7732 H       2      m2     0.0530
    976 H           28.0243    25.8422    26.8005 H       2      m2     0.0530
    977 H           26.2373    26.3722    26.8789 H       2      m2     0.0530
    978 O          -47.5712    -2.7917    -6.1238 O       2      m2    -0.2660
    979 C          -48.3551    -3.0370    -4.8213 C       2      m2     0.0270
    980 C          -48.0461    -1.7105    -5.1359 C       2      m2     0.0800
    981 C          -46.8267    -1.0524    -4.4990 C       2      m2     0.0270
    982 O          -47.2503    -0.2021    -3.4531 O       2      m2    -0.1595
    983 C          -46.3114     0.5080    -2.7440 C       2      m2     0.0265
    984 C          -46.7232     1.2733    -1.7145 C       2      m2    -0.1268
    985 C          -45.8768     1.9960    -0.9658 C       2      m2    -0.1268
    986 C          -44.5578     1.9851    -1.2179 C       2      m2     0.0000
    987 C          -44.1265     1.2225    -2.2359 C       2      m2    -0.1268
    988 C          -44.9835     0.5033    -2.9779 C       2      m2    -0.1268
    989 C          -43.5933     2.7886    -0.3752 C       2      m2    -0.1060
    990 C          -43.1356     1.9562     0.8012 C       2      m2     0.0000
    991 C          -43.7952     1.9811     1.9705 C       2      m2    -0.1268
    992 C          -43.3845     1.2323     3.0047 C       2      m2    -0.1268
    993 C          -42.3087     0.4241     2.9353 C       2      m2     0.0265
    994 C          -41.6607     0.4088     1.7529 C       2      m2    -0.1268
    995 C          -42.0622     1.1539     0.7107 C       2      m2    -0.1268
    996 O          -41.9621    -0.3074     4.0460 O       2      m2    -0.1595
    997 C          -40.8350    -1.1574     3.9881 C       2      m2     0.0270
    998 C          -40.6843    -1.8829     5.3211 C       2      m2     0.0800
    999 C          -39.7181    -1.4509     6.2342 C       2      m2     0.0270
   1000 O          -39.3432    -2.6389     5.3291 O       2      m2    -0.2660
   1001 H          -49.3312    -3.4434    -5.0838 H       2      m2     0.0530
   1002 H          -47.7257    -3.6185    -4.1498 H       2      m2     0.0530
   1003 H          -48.7910    -1.0599    -5.6053 H       2      m2     0.0530
   1004 H          -46.1284    -1.8149    -4.0838 H       2      m2     0.0530
   1005 H          -46.3126    -0.4485    -5.2825 H       2      m2     0.0530
   1006 H          -47.8003     1.3066    -1.4758 H       2      m2     0.1268
   1007 H          -46.2727     2.6016    -0.1338 H       2      m2     0.1268
   1008 H          -43.0488     1.1822    -2.4669 H       2      m2     0.1268
   1009 H          -44.5517    -0.0975    -3.7939 H       2      m2     0.1268
   1010 H          -42.7199     3.1168    -0.9840 H       2      m2     0.0530
   1011 H          -44.0733     3.7312    -0.0253 H       2      m2     0.0530
   1012 H          -44.6860     2.6206     2.0862 H       2      m2     0.1268
   1013 H          -43.9523     1.2794     3.9500 H       2      m2     0.1268
   1014 H          -40.7719    -0.2232     1.5992 H       2      m2     0.1268
   1015 H          -41.4998     1.1025    -0.2368 H       2      m2     0.1268
   1016 H          -40.9899    -1.9245     3.1940 H       2      m2     0.0530
   1017 H          -39.9328    -0.5453     3.7584 H       2      m2     0.0530
   1018 H          -41.4994    -2.5405     5.6398 H       2      m2     0.0530
   1019 H          -39.7485    -1.8050     7.2640 H       2      m2     0.0530
   1020 H          -39.0524    -0.6218     6.0007 H       2      m2     0.0530
   1021 O           27.3947    49.3772     0.1743 O       2      m2    -0.2660
   1022 C           26.9472    49.0373    -1.2593 C       2      m2     0.0270
   1023 C           25.9573    49.4660    -0.3702 C       2      m2     0.0800
   1024 C           25.0926    48.4334     0.3452 C       2      m2     0.0270
   1025 O           23.8279    48.3713    -0.2816 O       2      m2    -0.1595
   1026 C           22.8771    47.5095     0.2101 C       2      m2     0.0265
   1027 C           21.6945    47.4204    -0.4292 C       2      m2    -0.1268
   1028 C           20.7115    46.6036    -0.0224 C       2      m2    -0.1268
   1029 C           20.8703    45.8258     1.0608 C       2      m2     0.0000
   1030 C           22.0452    45.8949     1.7079 C       2      m2    -0.1268
   1031 C           23.0218    46.7163     1.2908 C       2      m2    -0.1268
   1032 C           19.7726    44.8946     1.5235 C       2      m2    -0.1060
   1033 C           19.9204    43.5573     0.8336 C       2      m2     0.0000
   1034 C           19.3066    43.3043    -0.3337 C       2      m2    -0.1268
   1035 C           19.4514    42.1169    -0.9404 C       2      m2    -0.1268
   1036 C           20.2073    41.1261    -0.4284 C       2      m2     0.0265
   1037 C           20.8190    41.3987     0.7419 C       2      m2    -0.1268
   1038 C           20.6816    42.5833     1.3587 C       2      m2    -0.1268
   1039 O           20.2980    39.9424    -1.1207 O       2      m2    -0.1595
   1040 C           21.0854    38.8940    -0.5945 C       2      m2     0.0270
   1041 C           21.0570    37.7123    -1.5582 C       2      m2     0.0800
   1042 C           20.2469    36.6097    -1.2713 C       2      m2     0.0270
   1043 O           21.7341    36.5038    -0.8863 O       2      m2    -0.2660
   1044 H           27.4121    49.7510    -1.9385 H       2      m2     0.0530
   1045 H           27.1306    47.9779    -1.4308 H       2      m2     0.0530
   1046 H           25.6116    50.5047    -0.3782 H       2      m2     0.0530
   1047 H           25.5616    47.4232     0.3125 H       2      m2     0.0530
   1048 H           24.9665    48.7631     1.4027 H       2      m2     0.0530
   1049 H           21.5273    48.0434    -1.3249 H       2      m2     0.1268
   1050 H           19.7658    46.5717    -0.5884 H       2      m2     0.1268
   1051 H           22.2147    45.2644     2.5968 H       2      m2     0.1268
   1052 H           23.9560    46.7145     1.8743 H       2      m2     0.1268
   1053 H           19.8058    44.7684     2.6299 H       2      m2     0.0530
   1054 H           18.7719    45.3364     1.3120 H       2      m2     0.0530
   1055 H           18.6776    44.0784    -0.8036 H       2      m2     0.1268
   1056 H           18.9311    41.9460    -1.8987 H       2      m2     0.1268
   1057 H           21.4603    40.6522     1.2363 H       2      m2     0.1268
   1058 H           21.2065    42.7579     2.3130 H       2      m2     0.1268
   1059 H           22.1423    39.2360    -0.5000 H       2      m2     0.0530
   1060 H           20.6846    38.6083     0.4050 H       2      m2     0.0530
   1061 H           21.4548    37.8656    -2.5664 H       2      m2     0.0530
   1062 H           20.0431    35.8706    -2.0452 H       2      m2     0.0530
   1063 H           19.6553    36.5671    -0.3584 H       2      m2     0.0530
   1064 O          -20.5699    -0.8913    14.5698 O       2      m2    -0.2660
   1065 C          -21.4285     0.3537    14.8597 C       2      m2     0.0270
   1066 C          -20.1859     0.2773    15.4956 C       2      m2     0.0800
   1067 C          -20.1070    -0.2335    16.9304 C       2      m2     0.0270
   1068 O          -19.9506     0.8636    17.8068 O       2      m2    -0.1595
   1069 C          -19.8440     0.6334    19.1574 C       2      m2     0.0265
   1070 C          -19.7495     1.6909    19.9869 C       2      m2    -0.1268
   1071 C          -19.6463     1.5601    21.3177 C       2      m2    -0.1268
   1072 C          -19.6327     0.3445    21.8883 C       2      m2     0.0000
   1073 C          -19.7331    -0.7226    21.0787 C       2      m2    -0.1268
   1074 C          -19.8362    -0.5787    19.7480 C       2      m2    -0.1268
   1075 C          -19.5258     0.1849    23.3880 C       2      m2    -0.1060
   1076 C          -20.9097     0.1953    23.9971 C       2      m2     0.0000
   1077 C          -21.4821     1.3391    24.4058 C       2      m2    -0.1268
   1078 C          -22.7135     1.3370    24.9375 C       2      m2    -0.1268
   1079 C          -23.4380     0.2112    25.0894 C       2      m2     0.0265
   1080 C          -22.8493    -0.9272    24.6704 C       2      m2    -0.1268
   1081 C          -21.6174    -0.9377    24.1368 C       2      m2    -0.1268
   1082 O          -24.6920     0.3052    25.6438 O       2      m2    -0.1595
   1083 C          -25.4620    -0.8675    25.8109 C       2      m2     0.0270
   1084 C          -26.8175    -0.4978    26.4041 C       2      m2     0.0800
   1085 C          -27.0566    -0.7175    27.7638 C       2      m2     0.0270
   1086 O          -27.5659    -1.7890    26.7822 O       2      m2    -0.2660
   1087 H          -21.5302     0.9192    13.9342 H       2      m2     0.0530
   1088 H          -22.3391     0.0298    15.3608 H       2      m2     0.0530
   1089 H          -19.3206     0.8167    15.0970 H       2      m2     0.0530
   1090 H          -21.0303    -0.7906    17.2109 H       2      m2     0.0530
   1091 H          -19.2178    -0.9012    17.0098 H       2      m2     0.0530
   1092 H          -19.7588     2.7066    19.5548 H       2      m2     0.1268
   1093 H          -19.5750     2.4633    21.9461 H       2      m2     0.1268
   1094 H          -19.7339    -1.7365    21.5126 H       2      m2     0.1268
   1095 H          -19.9157    -1.5021    19.1527 H       2      m2     0.1268
   1096 H          -18.9936    -0.7595    23.6451 H       2      m2     0.0530
   1097 H          -18.9001     0.9978    23.8227 H       2      m2     0.0530
   1098 H          -20.9392     2.2933    24.3034 H       2      m2     0.1268
   1099 H          -23.1509     2.2970    25.2621 H       2      m2     0.1268
   1100 H          -23.3647    -1.8973    24.7506 H       2      m2     0.1268
   1101 H          -21.1818    -1.8954    23.8056 H       2      m2     0.1268
   1102 H          -25.6385    -1.3397    24.8165 H       2      m2     0.0530
   1103 H          -24.9096    -1.5703    26.4759 H       2      m2     0.0530
   1104 H          -27.4650     0.1671    25.8236 H       2      m2     0.0530
   1105 H          -27.9203    -0.2586    28.2435 H       2      m2     0.0530
   1106 H          -26.3017    -1.1726    28.4027 H       2      m2     0.0530
   1107 O            3.4077    -5.1752    39.5668 O       2      m2    -0.2660
   1108 C            3.5932    -5.4700    41.0668 C       2      m2     0.0270
   1109 C            2.2803    -5.3748    40.5962 C       2      m2     0.0800
   1110 C            1.5186    -4.0633    40.7563 C       2      m2     0.0270
   1111 O            0.6145    -4.1794    41.8357 O       2      m2    -0.1595
   1112 C           -0.1908    -3.1122    42.1540 C       2      m2     0.0265
   1113 C           -1.0097    -3.2167    43.2188 C       2      m2    -0.1268
   1114 C           -1.8259    -2.2246    43.6043 C       2      m2    -0.1268
   1115 C           -1.8600    -1.0636    42.9302 C       2      m2     0.0000
   1116 C           -1.0456    -0.9372    41.8697 C       2      m2    -0.1268
   1117 C           -0.2327    -1.9373    41.4938 C       2      m2    -0.1268
   1118 C           -2.7694     0.0650    43.3608 C       2      m2    -0.1060
   1119 C           -2.0497     0.9399    44.3622 C       2      m2     0.0000
   1120 C           -2.1295     0.6996    45.6809 C       2      m2    -0.1268
   1121 C           -1.4802     1.4779    46.5594 C       2      m2    -0.1268
   1122 C           -0.7220     2.5254    46.1812 C       2      m2     0.0265
   1123 C           -0.6502     2.7496    44.8535 C       2      m2    -0.1268
   1124 C           -1.2956     1.9778    43.9646 C       2      m2    -0.1268
   1125 O           -0.0925     3.2669    47.1521 O       2      m2    -0.1595
   1126 C            0.7040     4.3695    46.7700 C       2      m2     0.0270
   1127 C            1.3204     4.9989    48.0149 C       2      m2     0.0800
   1128 C            0.7758     6.1782    48.5314 C       2      m2     0.0270
   1129 O            2.0082     6.3182    47.6189 O       2      m2    -0.2660
   1130 H            4.0645    -6.4472    41.1651 H       2      m2     0.0530
   1131 H            4.0921    -4.6162    41.5222 H       2      m2     0.0530
   1132 H            1.7031    -6.2760    40.3657 H       2      m2     0.0530
   1133 H            2.2136    -3.2160    40.9572 H       2      m2     0.0530
   1134 H            0.9505    -3.8779    39.8151 H       2      m2     0.0530
   1135 H           -1.0086    -4.1557    43.7989 H       2      m2     0.1268
   1136 H           -2.4718    -2.3675    44.4863 H       2      m2     0.1268
   1137 H           -1.0403     0.0054    41.2971 H       2      m2     0.1268
   1138 H            0.4054    -1.7557    40.6146 H       2      m2     0.1268
   1139 H           -3.0932     0.6656    42.4800 H       2      m2     0.0530
   1140 H           -3.7111    -0.3387    43.7984 H       2      m2     0.0530
   1141 H           -2.7321    -0.1466    46.0505 H       2      m2     0.1268
   1142 H           -1.5700     1.2492    47.6355 H       2      m2     0.1268
   1143 H           -0.0522     3.5810    44.4484 H       2      m2     0.1268
   1144 H           -1.2012     2.2010    42.8886 H       2      m2     0.1268
   1145 H            1.5345     4.0173    46.1150 H       2      m2     0.0530
   1146 H            0.0679     5.1015    46.2216 H       2      m2     0.0530
   1147 H            1.9911     4.3814    48.6209 H       2      m2     0.0530
   1148 H            1.0535     6.5117    49.5306 H       2      m2     0.0530
   1149 H           -0.0648     6.6709    48.0458 H       2      m2     0.0530
   1150 O           42.4198    -7.0350    46.4616 O       2      m2    -0.2660
   1151 C           43.9088    -6.8526    46.1141 C       2      m2     0.0270
   1152 C           43.3696    -5.9874    47.0706 C       2      m2     0.0800
   1153 C           42.9076    -4.5965    46.6491 C       2      m2     0.0270
   1154 O           43.8793    -3.6465    47.0360 O       2      m2    -0.1595
   1155 C           43.6623    -2.3167    46.7656 C       2      m2     0.0265
   1156 C           44.6205    -1.4273    47.0910 C       2      m2    -0.1268
   1157 C           44.4957    -0.1119    46.8603 C       2      m2    -0.1268
   1158 C           43.3877     0.3811    46.2836 C       2      m2     0.0000
   1159 C           42.4235    -0.4906    45.9452 C       2      m2    -0.1268
   1160 C           42.5602    -1.8051    46.1810 C       2      m2    -0.1268
   1161 C           43.2396     1.8608    46.0104 C       2      m2    -0.1060
   1162 C           43.8070     2.1819    44.6462 C       2      m2     0.0000
   1163 C           45.0942     2.5318    44.4921 C       2      m2    -0.1268
   1164 C           45.5884     2.8068    43.2759 C       2      m2    -0.1268
   1165 C           44.8404     2.7483    42.1569 C       2      m2     0.0265
   1166 C           43.5515     2.3918    42.3297 C       2      m2    -0.1268
   1167 C           43.0454     2.1143    43.5419 C       2      m2    -0.1268
   1168 O           45.4325     3.0465    40.9530 O       2      m2    -0.1595
   1169 C           44.6595     2.9912    39.7716 C       2      m2     0.0270
   1170 C           45.5460     3.3225    38.5757 C       2      m2     0.0800
   1171 C           45.4741     4.5929    37.9968 C       2      m2     0.0270
   1172 O           44.6612     3.4712    37.3245 O       2      m2    -0.2660
   1173 H           44.4438    -7.7467    46.4319 H       2      m2     0.0530
   1174 H           43.9807    -6.5616    45.0675 H       2      m2     0.0530
   1175 H           43.5164    -6.1750    48.1391 H       2      m2     0.0530
   1176 H           42.7640    -4.5369    45.5458 H       2      m2     0.0530
   1177 H           41.9476    -4.3791    47.1727 H       2      m2     0.0530
   1178 H           45.5468    -1.7951    47.5655 H       2      m2     0.1268
   1179 H           45.3156     0.5676    47.1462 H       2      m2     0.1268
   1180 H           41.5028    -0.1230    45.4618 H       2      m2     0.1268
   1181 H           41.7258    -2.4550    45.8732 H       2      m2     0.1268
   1182 H           42.1695     2.1654    46.0693 H       2      m2     0.0530
   1183 H           43.7542     2.4561    46.7991 H       2      m2     0.0530
   1184 H           45.7567     2.5930    45.3714 H       2      m2     0.1268
   1185 H           46.6514     3.0911    43.1891 H       2      m2     0.1268
   1186 H           42.8630     2.3135    41.4737 H       2      m2     0.1268
   1187 H           41.9850     1.8235    43.6293 H       2      m2     0.1268
   1188 H           44.2673     1.9567    39.6335 H       2      m2     0.0530
   1189 H           43.8148     3.7124    39.8589 H       2      m2     0.0530
   1190 H           46.3953     2.6628    38.3709 H       2      m2     0.0530
   1191 H           46.2472     4.9161    37.3006 H       2      m2     0.0530
   1192 H           44.7774     5.3428    38.3675 H       2      m2     0.0530
   1193 O            0.3162    14.4785    42.8272 O       2      m2    -0.2660
   1194 C            0.2628    15.2785    41.5125 C       2      m2     0.0270
   1195 C            1.3116    15.5687    42.3900 C       2      m2     0.0800
   1196 C            1.1907    16.7577    43.3372 C       2      m2     0.0270
   1197 O            1.9527    17.8346    42.8315 O       2      m2    -0.1595
   1198 C            1.9987    19.0133    43.5366 C       2      m2     0.0265
   1199 C            2.6846    20.0499    43.0168 C       2      m2    -0.1268
   1200 C            2.7791    21.2374    43.6333 C       2      m2    -0.1268
   1201 C            2.1813    21.4446    44.8178 C       2      m2     0.0000
   1202 C            1.4865    20.4253    45.3493 C       2      m2    -0.1268
   1203 C            1.3989    19.2415    44.7224 C       2      m2    -0.1268
   1204 C            2.2733    22.7816    45.5178 C       2      m2    -0.1060
   1205 C            1.1411    23.6718    45.0576 C       2      m2     0.0000
   1206 C            1.2835    24.4904    44.0028 C       2      m2    -0.1268
   1207 C            0.2695    25.2699    43.5988 C       2      m2    -0.1268
   1208 C           -0.9302    25.2782    44.2120 C       2      m2     0.0265
   1209 C           -1.0565    24.4476    45.2668 C       2      m2    -0.1268
   1210 C           -0.0488    23.6629    45.6804 C       2      m2    -0.1268
   1211 O           -1.9113    26.1097    43.7277 O       2      m2    -0.1595
   1212 C           -3.1735    26.1302    44.3622 C       2      m2     0.0270
   1213 C           -4.0928    27.0948    43.6204 C       2      m2     0.0800
   1214 C           -4.3337    28.3640    44.1545 C       2      m2     0.0270
   1215 O           -5.3872    27.2763    44.4340 O       2      m2    -0.2660
   1216 H            0.4223    14.5860    40.6868 H       2      m2     0.0530
   1217 H           -0.6512    15.8701    41.5111 H       2      m2     0.0530
   1218 H            2.3067    15.1408    42.2314 H       2      m2     0.0530
   1219 H            0.1303    17.0835    43.4413 H       2      m2     0.0530
   1220 H            1.5961    16.4503    44.3292 H       2      m2     0.0530
   1221 H            3.1884    19.9181    42.0435 H       2      m2     0.1268
   1222 H            3.3524    22.0499    43.1571 H       2      m2     0.1268
   1223 H            0.9751    20.5616    46.3170 H       2      m2     0.1268
   1224 H            0.8100    18.4564    45.2225 H       2      m2     0.1268
   1225 H            2.2402    22.6486    46.6234 H       2      m2     0.0530
   1226 H            3.2576    23.2617    45.3129 H       2      m2     0.0530
   1227 H            2.2416    24.5242    43.4580 H       2      m2     0.1268
   1228 H            0.4244    25.9298    42.7277 H       2      m2     0.1268
   1229 H           -2.0009    24.3824    45.8298 H       2      m2     0.1268
   1230 H           -0.2045    22.9978    46.5466 H       2      m2     0.1268
   1231 H           -3.6292    25.1140    44.3136 H       2      m2     0.0530
   1232 H           -3.0385    26.4389    45.4242 H       2      m2     0.0530
   1233 H           -4.3235    26.8770    42.5727 H       2      m2     0.0530
   1234 H           -4.7957    29.1334    43.5370 H       2      m2     0.0530
   1235 H           -3.8979    28.6678    45.1047 H       2      m2     0.0530
   1236 O           50.9157    43.8416    18.8070 O       2      m2    -0.2660
   1237 C           50.5499    42.5096    19.4874 C       2      m2     0.0270
   1238 C           49.6844    42.9726    18.4920 C       2      m2     0.0800
   1239 C           48.4253    43.7367    18.8878 C       2      m2     0.0270
   1240 O           47.3088    42.8768    18.7876 O       2      m2    -0.1595
   1241 C           46.0587    43.3629    19.0870 C       2      m2     0.0265
   1242 C           45.0096    42.5188    19.0397 C       2      m2    -0.1268
   1243 C           43.7563    42.9054    19.3201 C       2      m2    -0.1268
   1244 C           43.4917    44.1757    19.6663 C       2      m2     0.0000
   1245 C           44.5255    45.0311    19.7261 C       2      m2    -0.1268
   1246 C           45.7757    44.6321    19.4435 C       2      m2    -0.1268
   1247 C           42.0842    44.6209    19.9933 C       2      m2    -0.1060
   1248 C           41.8180    44.4126    21.4671 C       2      m2     0.0000
   1249 C           41.2982    43.2623    21.9251 C       2      m2    -0.1268
   1250 C           41.0736    43.0861    23.2356 C       2      m2    -0.1268
   1251 C           41.3517    44.0312    24.1546 C       2      m2     0.0265
   1252 C           41.8763    45.1781    23.6775 C       2      m2    -0.1268
   1253 C           42.1055    45.3663    22.3681 C       2      m2    -0.1268
   1254 O           41.0887    43.7619    25.4764 O       2      m2    -0.1595
   1255 C           41.3734    44.7448    26.4506 C       2      m2     0.0270
   1256 C           41.0334    44.1955    27.8321 C       2      m2     0.0800
   1257 C           39.8505    44.5964    28.4600 C       2      m2     0.0270
   1258 O           41.1407    45.3345    28.8624 O       2      m2    -0.2660
   1259 H           51.3195    41.7793    19.2402 H       2      m2     0.0530
   1260 H           50.3555    42.7074    20.5402 H       2      m2     0.0530
   1261 H           49.7426    42.5765    17.4731 H       2      m2     0.0530
   1262 H           48.4962    44.1157    19.9332 H       2      m2     0.0530
   1263 H           48.3022    44.5883    18.1790 H       2      m2     0.0530
   1264 H           45.1880    41.4660    18.7604 H       2      m2     0.1268
   1265 H           42.9382    42.1681    19.2672 H       2      m2     0.1268
   1266 H           44.3473    46.0805    20.0153 H       2      m2     0.1268
   1267 H           46.5689    45.3929    19.5164 H       2      m2     0.1268
   1268 H           41.9371    45.6903    19.7177 H       2      m2     0.0530
   1269 H           41.3449    44.0586    19.3781 H       2      m2     0.0530
   1270 H           41.0537    42.4500    21.2207 H       2      m2     0.1268
   1271 H           40.6451    42.1269    23.5742 H       2      m2     0.1268
   1272 H           42.1393    46.0077    24.3525 H       2      m2     0.1268
   1273 H           42.5401    46.3217    22.0290 H       2      m2     0.1268
   1274 H           42.4630    44.9801    26.4321 H       2      m2     0.0530
   1275 H           40.7800    45.6601    26.2239 H       2      m2     0.0530
   1276 H           41.5769    43.3105    28.1780 H       2      m2     0.0530
   1277 H           39.4864    44.0507    29.3296 H       2      m2     0.0530
   1278 H           39.1794    45.3147    27.9923 H       2      m2     0.0530
   1279 O          -43.3875     4.6973   -16.0327 O       2      m2    -0.2660
   1280 C          -44.6954     3.8848   -16.0117 C       2      m2     0.0270
   1281 C          -43.4995     3.1618   -16.0479 C       2      m2     0.0800
   1282 C          -42.9774     2.6408   -17.3827 C       2      m2     0.0270
   1283 O          -43.2570     1.2597   -17.4844 O       2      m2    -0.1595
   1284 C          -42.8608     0.5760   -18.6088 C       2      m2     0.0265
   1285 C          -43.1809    -0.7282   -18.7174 C       2      m2    -0.1268
   1286 C          -42.8391    -1.4714   -19.7804 C       2      m2    -0.1268
   1287 C          -42.1499    -0.9338   -20.7999 C       2      m2     0.0000
   1288 C          -41.8273     0.3672   -20.7137 C       2      m2    -0.1268
   1289 C          -42.1754     1.1008   -19.6446 C       2      m2    -0.1268
   1290 C          -41.7669    -1.7594   -22.0073 C       2      m2    -0.1060
   1291 C          -42.8751    -1.6974   -23.0340 C       2      m2     0.0000
   1292 C          -43.8706    -2.5986   -23.0393 C       2      m2    -0.1268
   1293 C          -44.8527    -2.5289   -23.9502 C       2      m2    -0.1268
   1294 C          -44.9015    -1.5695   -24.8949 C       2      m2     0.0265
   1295 C          -43.8961    -0.6712   -24.8724 C       2      m2    -0.1268
   1296 C          -42.9077    -0.7307   -23.9658 C       2      m2    -0.1268
   1297 O          -45.9469    -1.5766   -25.7870 O       2      m2    -0.1595
   1298 C          -46.0096    -0.5777   -26.7842 C       2      m2     0.0270
   1299 C          -47.2721    -0.7775   -27.6162 C       2      m2     0.0800
   1300 C          -47.1769    -1.3647   -28.8812 C       2      m2     0.0270
   1301 O          -47.2281     0.1733   -28.8263 O       2      m2    -0.2660
   1302 H          -45.1917     4.0647   -15.0587 H       2      m2     0.0530
   1303 H          -45.2482     4.1063   -16.9231 H       2      m2     0.0530
   1304 H          -43.0770     2.7353   -15.1325 H       2      m2     0.0530
   1305 H          -43.4579     3.1702   -18.2374 H       2      m2     0.0530
   1306 H          -41.8740     2.7984   -17.4061 H       2      m2     0.0530
   1307 H          -43.7487    -1.2050   -17.8997 H       2      m2     0.1268
   1308 H          -43.1319    -2.5338   -19.8142 H       2      m2     0.1268
   1309 H          -41.2689     0.8449   -21.5361 H       2      m2     0.1268
   1310 H          -41.8750     2.1605   -19.6496 H       2      m2     0.1268
   1311 H          -40.8094    -1.3942   -22.4445 H       2      m2     0.0530
   1312 H          -41.5662    -2.8143   -21.7102 H       2      m2     0.0530
   1313 H          -43.8867    -3.4051   -22.2876 H       2      m2     0.1268
   1314 H          -45.6538    -3.2877   -23.9230 H       2      m2     0.1268
   1315 H          -43.8517     0.1516   -25.6031 H       2      m2     0.1268
   1316 H          -42.1102     0.0310   -23.9875 H       2      m2     0.1268
   1317 H          -46.0707     0.4250   -26.3009 H       2      m2     0.0530
   1318 H          -45.0954    -0.6425   -27.4178 H       2      m2     0.0530
   1319 H          -48.2375    -0.7061   -27.1049 H       2      m2     0.0530
   1320 H          -48.0766    -1.7166   -29.3847 H       2      m2     0.0530
   1321 H          -46.2140    -1.6585   -29.2953 H       2      m2     0.0530
   1322 O          -16.5399    48.6858   -41.4943 O       2      m2    -0.2660
   1323 C          -17.1730    47.8585   -40.3603 C       2      m2     0.0270
   1324 C          -16.6044    47.1492   -41.4223 C       2      m2     0.0800
   1325 C          -17.4979    46.6382   -42.5476 C       2      m2     0.0270
   1326 O          -17.7215    45.2543   -42.3719 O       2      m2    -0.1595
   1327 C          -18.4952    44.5786   -43.2849 C       2      m2     0.0265
   1328 C          -18.7453    43.2711   -43.0767 C       2      m2    -0.1268
   1329 C          -19.4928    42.5351   -43.9125 C       2      m2    -0.1268
   1330 C          -20.0329    43.0836   -45.0129 C       2      m2     0.0000
   1331 C          -19.8010    44.3879   -45.2345 C       2      m2    -0.1268
   1332 C          -19.0513    45.1142   -44.3903 C       2      m2    -0.1268
   1333 C          -20.8847    42.2661   -45.9575 C       2      m2    -0.1060
   1334 C          -22.3281    42.3186   -45.5103 C       2      m2     0.0000
   1335 C          -22.8276    41.4062   -44.6611 C       2      m2    -0.1268
   1336 C          -24.1076    41.4676   -44.2651 C       2      m2    -0.1268
   1337 C          -24.9531    42.4292   -44.6842 C       2      m2     0.0265
   1338 C          -24.4338    43.3387   -45.5334 C       2      m2    -0.1268
   1339 C          -23.1543    43.2877   -45.9369 C       2      m2    -0.1268
   1340 O          -26.2483    42.4129   -44.2248 O       2      m2    -0.1595
   1341 C          -27.1464    43.4140   -44.6577 C       2      m2     0.0270
   1342 C          -28.4974    43.2025   -43.9824 C       2      m2     0.0800
   1343 C          -29.5437    42.6203   -44.7039 C       2      m2     0.0270
   1344 O          -29.5264    44.1574   -44.6146 O       2      m2    -0.2660
   1345 H          -16.5963    48.0298   -39.4521 H       2      m2     0.0530
   1346 H          -18.2393    48.0764   -40.3347 H       2      m2     0.0530
   1347 H          -15.5990    46.7247   -41.3355 H       2      m2     0.0530
   1348 H          -18.4799    47.1646   -42.5527 H       2      m2     0.0530
   1349 H          -16.9670    46.8084   -43.5130 H       2      m2     0.0530
   1350 H          -18.3195    42.7855   -42.1817 H       2      m2     0.1268
   1351 H          -19.6653    41.4696   -43.6879 H       2      m2     0.1268
   1352 H          -20.2356    44.8744   -46.1238 H       2      m2     0.1268
   1353 H          -18.9087    46.1773   -44.6409 H       2      m2     0.1268
   1354 H          -20.7858    42.6434   -47.0011 H       2      m2     0.0530
   1355 H          -20.5239    41.2126   -45.9948 H       2      m2     0.0530
   1356 H          -22.1822    40.5973   -44.2805 H       2      m2     0.1268
   1357 H          -24.4822    40.6996   -43.5663 H       2      m2     0.1268
   1358 H          -25.0470    44.1642   -45.9278 H       2      m2     0.1268
   1359 H          -22.7767    44.0585   -46.6298 H       2      m2     0.1268
   1360 H          -26.7614    44.4146   -44.3518 H       2      m2     0.0530
   1361 H          -27.2379    43.3616   -45.7668 H       2      m2     0.0530
   1362 H          -28.5374    43.2614   -42.8900 H       2      m2     0.0530
   1363 H          -30.4284    42.2597   -44.1805 H       2      m2     0.0530
   1364 H          -29.4201    42.3386   -45.7481 H       2      m2     0.0530
   1365 O           18.8441    19.5309   -37.5199 O       2      m2    -0.2660
   1366 C           17.8005    20.0686   -38.5164 C       2      m2     0.0270
   1367 C           18.6220    19.0270   -38.9577 C       2      m2     0.0800
   1368 C           19.8584    19.3476   -39.7908 C       2      m2     0.0270
   1369 O           19.5888    19.0692   -41.1495 O       2      m2    -0.1595
   1370 C           20.5746    19.2742   -42.0848 C       2      m2     0.0265
   1371 C           20.2878    19.0565   -43.3831 C       2      m2    -0.1268
   1372 C           21.1864    19.2348   -44.3627 C       2      m2    -0.1268
   1373 C           22.4337    19.6462   -44.0825 C       2      m2     0.0000
   1374 C           22.7372    19.8757   -42.7944 C       2      m2    -0.1268
   1375 C           21.8289    19.6938   -41.8227 C       2      m2    -0.1268
   1376 C           23.4525    19.8594   -45.1792 C       2      m2    -0.1060
   1377 C           23.3533    21.2783   -45.6921 C       2      m2     0.0000
   1378 C           22.5457    21.5931   -46.7178 C       2      m2    -0.1268
   1379 C           22.4600    22.8568   -47.1591 C       2      m2    -0.1268
   1380 C           23.1622    23.8676   -46.6111 C       2      m2     0.0265
   1381 C           23.9650    23.5341   -45.5803 C       2      m2    -0.1268
   1382 C           24.0593    22.2729   -45.1298 C       2      m2    -0.1268
   1383 O           23.0101    25.1315   -47.1290 O       2      m2    -0.1595
   1384 C           23.7420    26.2006   -46.5655 C       2      m2     0.0270
   1385 C           23.3725    27.4949   -47.2824 C       2      m2     0.0800
   1386 C           24.2450    28.0264   -48.2366 C       2      m2     0.0270
   1387 O           24.3219    28.6131   -46.8150 O       2      m2    -0.2660
   1388 H           16.8092    19.8477   -38.1224 H       2      m2     0.0530
   1389 H           18.0417    21.1077   -38.7341 H       2      m2     0.0530
   1390 H           18.2634    17.9927   -38.9526 H       2      m2     0.0530
   1391 H           20.1437    20.4201   -39.6920 H       2      m2     0.0530
   1392 H           20.6907    18.6957   -39.4369 H       2      m2     0.0530
   1393 H           19.2721    18.7189   -43.6526 H       2      m2     0.1268
   1394 H           20.8924    19.0432   -45.4079 H       2      m2     0.1268
   1395 H           23.7495    20.2227   -42.5274 H       2      m2     0.1268
   1396 H           22.1547    19.9045   -40.7918 H       2      m2     0.1268
   1397 H           24.4810    19.6510   -44.8051 H       2      m2     0.0530
   1398 H           23.2920    19.1312   -46.0070 H       2      m2     0.0530
   1399 H           21.9428    20.8085   -47.2043 H       2      m2     0.1268
   1400 H           21.7854    23.0769   -48.0045 H       2      m2     0.1268
   1401 H           24.5758    24.2927   -45.0660 H       2      m2     0.1268
   1402 H           24.7278    22.0527   -44.2805 H       2      m2     0.1268
   1403 H           23.4673    26.3117   -45.4907 H       2      m2     0.0530
   1404 H           24.8305    25.9834   -46.6620 H       2      m2     0.0530
   1405 H           22.3308    27.8276   -47.2317 H       2      m2     0.0530
   1406 H           23.9003    28.8107   -48.9094 H       2      m2     0.0530
   1407 H           25.1969    27.5473   -48.4589 H       2      m2     0.0530
   1408 O           17.3472   -19.4052   -27.4467 O       2      m2    -0.2660
   1409 C           18.6463   -20.0039   -28.0169 C       2      m2     0.0270
   1410 C           17.8615   -20.8378   -27.2150 C       2      m2     0.0800
   1411 C           18.2101   -21.0058   -25.7399 C       2      m2     0.0270
   1412 O           18.8642   -22.2443   -25.5547 O       2      m2    -0.1595
   1413 C           19.2600   -22.6116   -24.2910 C       2      m2     0.0265
   1414 C           19.9305   -23.7698   -24.1358 C       2      m2    -0.1268
   1415 C           20.3582   -24.2042   -22.9410 C       2      m2    -0.1268
   1416 C           20.1305   -23.4869   -21.8289 C       2      m2     0.0000
   1417 C           19.4696   -22.3253   -21.9637 C       2      m2    -0.1268
   1418 C           19.0468   -21.9010   -23.1651 C       2      m2    -0.1268
   1419 C           20.6156   -23.9620   -20.4779 C       2      m2    -0.1060
   1420 C           22.0179   -23.4506   -20.2362 C       2      m2     0.0000
   1421 C           23.0931   -24.1675   -20.6012 C       2      m2    -0.1268
   1422 C           24.3322   -23.7001   -20.3888 C       2      m2    -0.1268
   1423 C           24.5700   -22.5068   -19.8103 C       2      m2     0.0265
   1424 C           23.4791   -21.7991   -19.4537 C       2      m2    -0.1268
   1425 C           22.2340   -22.2564   -19.6610 C       2      m2    -0.1268
   1426 O           25.8736   -22.1091   -19.6334 O       2      m2    -0.1595
   1427 C           26.1377   -20.8610   -19.0262 C       2      m2     0.0270
   1428 C           27.6451   -20.6341   -18.9801 C       2      m2     0.0800
   1429 C           28.3338   -20.8280   -17.7792 C       2      m2     0.0270
   1430 O           27.9358   -19.3829   -18.1315 O       2      m2    -0.2660
   1431 H           18.5521   -20.0490   -29.1013 H       2      m2     0.0530
   1432 H           19.4869   -19.4506   -27.6017 H       2      m2     0.0530
   1433 H           17.1827   -21.5687   -27.6661 H       2      m2     0.0530
   1434 H           18.8802   -20.1878   -25.3888 H       2      m2     0.0530
   1435 H           17.2591   -20.9982   -25.1582 H       2      m2     0.0530
   1436 H           20.1380   -24.3863   -25.0275 H       2      m2     0.1268
   1437 H           20.9048   -25.1596   -22.8768 H       2      m2     0.1268
   1438 H           19.2719   -21.7053   -21.0732 H       2      m2     0.1268
   1439 H           18.5134   -20.9377   -23.1927 H       2      m2     0.1268
   1440 H           19.9298   -23.6160   -19.6709 H       2      m2     0.0530
   1441 H           20.5892   -25.0745   -20.4236 H       2      m2     0.0530
   1442 H           22.9613   -25.1505   -21.0831 H       2      m2     0.1268
   1443 H           25.1913   -24.3181   -20.7024 H       2      m2     0.1268
   1444 H           23.5728   -20.8107   -18.9769 H       2      m2     0.1268
   1445 H           21.3744   -21.6368   -19.3544 H       2      m2     0.1268
   1446 H           25.6855   -20.0474   -19.6397 H       2      m2     0.0530
   1447 H           25.6984   -20.8577   -18.0023 H       2      m2     0.0530
   1448 H           28.1842   -20.5881   -19.9318 H       2      m2     0.0530
   1449 H           29.4214   -20.8910   -17.7819 H       2      m2     0.0530
   1450 H           27.8099   -21.1129   -16.8685 H       2      m2     0.0530
   1451 O            0.9081   -29.3938   -45.5983 O       2      m2    -0.2660
   1452 C            1.3464   -28.4816   -46.7589 C       2      m2     0.0270
   1453 C            1.9709   -28.2823   -45.5243 C       2      m2     0.0800
   1454 C            1.4692   -27.1790   -44.5986 C       2      m2     0.0270
   1455 O            2.3431   -26.0717   -44.6785 O       2      m2    -0.1595
   1456 C            2.0886   -24.9597   -43.9121 C       2      m2     0.0265
   1457 C            2.8986   -23.8903   -44.0376 C       2      m2    -0.1268
   1458 C            2.7228   -22.7625   -43.3332 C       2      m2    -0.1268
   1459 C            1.7113   -22.6520   -42.4568 C       2      m2     0.0000
   1460 C            0.8883   -23.7049   -42.3225 C       2      m2    -0.1268
   1461 C            1.0744   -24.8284   -43.0334 C       2      m2    -0.1268
   1462 C            1.4979   -21.3824   -41.6639 C       2      m2    -0.1060
   1463 C            0.6100   -20.4413   -42.4464 C       2      m2     0.0000
   1464 C            1.1287   -19.5356   -43.2912 C       2      m2    -0.1268
   1465 C            0.3308   -18.7112   -43.9860 C       2      m2    -0.1268
   1466 C           -1.0122   -18.7414   -43.8831 C       2      m2     0.0265
   1467 C           -1.5158   -19.6592   -43.0332 C       2      m2    -0.1268
   1468 C           -0.7273   -20.4896   -42.3323 C       2      m2    -0.1268
   1469 O           -1.7501   -17.8585   -44.6347 O       2      m2    -0.1595
   1470 C           -3.1593   -17.8777   -44.5351 C       2      m2     0.0270
   1471 C           -3.7440   -16.8406   -45.4883 C       2      m2     0.0800
   1472 C           -4.1996   -15.6199   -44.9817 C       2      m2     0.0270
   1473 O           -5.2553   -16.7146   -45.2228 O       2      m2    -0.2660
   1474 H            1.8261   -29.1014   -47.5155 H       2      m2     0.0530
   1475 H            0.4903   -27.8807   -47.0613 H       2      m2     0.0530
   1476 H            2.9597   -28.7071   -45.3237 H       2      m2     0.0530
   1477 H            0.4433   -26.8502   -44.8831 H       2      m2     0.0530
   1478 H            1.4690   -27.5768   -43.5572 H       2      m2     0.0530
   1479 H            3.7404   -23.9430   -44.7496 H       2      m2     0.1268
   1480 H            3.4169   -21.9187   -43.4810 H       2      m2     0.1268
   1481 H            0.0415   -23.6472   -41.6182 H       2      m2     0.1268
   1482 H            0.3560   -25.6466   -42.8673 H       2      m2     0.1268
   1483 H            1.0454   -21.6109   -40.6718 H       2      m2     0.0530
   1484 H            2.4745   -20.8986   -41.4326 H       2      m2     0.0530
   1485 H            2.2216   -19.4664   -43.4206 H       2      m2     0.1268
   1486 H            0.7940   -17.9798   -44.6707 H       2      m2     0.1268
   1487 H           -2.6023   -19.7614   -42.8845 H       2      m2     0.1268
   1488 H           -1.1891   -21.2257   -41.6529 H       2      m2     0.1268
   1489 H           -3.5388   -18.8800   -44.8419 H       2      m2     0.0530
   1490 H           -3.4495   -17.6645   -43.4808 H       2      m2     0.0530
   1491 H           -3.5496   -16.9633   -46.5586 H       2      m2     0.0530
   1492 H           -4.4057   -14.7938   -45.6613 H       2      m2     0.0530
   1493 H           -4.1691   -15.4056   -43.9148 H       2      m2     0.0530
   1494 O          -42.2320    -6.4736    25.6077 O       2      m2    -0.2660
   1495 C          -41.6908    -5.2277    26.3329 C       2      m2     0.0270
   1496 C          -43.0697    -5.2835    26.1102 C       2      m2     0.0800
   1497 C          -43.6663    -4.5565    24.9097 C       2      m2     0.0270
   1498 O          -44.2698    -3.3558    25.3459 O       2      m2    -0.1595
   1499 C          -44.8858    -2.5417    24.4259 C       2      m2     0.0265
   1500 C          -45.4101    -1.3739    24.8462 C       2      m2    -0.1268
   1501 C          -46.0250    -0.5168    24.0178 C       2      m2    -0.1268
   1502 C          -46.1450    -0.7942    22.7094 C       2      m2     0.0000
   1503 C          -45.6224    -1.9507    22.2694 C       2      m2    -0.1268
   1504 C          -45.0089    -2.8004    23.1083 C       2      m2    -0.1268
   1505 C          -46.8282     0.1685    21.7646 C       2      m2    -0.1060
   1506 C          -45.8136     1.1494    21.2218 C       2      m2     0.0000
   1507 C          -45.5704     2.3149    21.8428 C       2      m2    -0.1268
   1508 C          -44.6623     3.1737    21.3563 C       2      m2    -0.1268
   1509 C          -43.9513     2.9248    20.2393 C       2      m2     0.0265
   1510 C          -44.2056     1.7486    19.6310 C       2      m2    -0.1268
   1511 C          -45.1122     0.8809    20.1083 C       2      m2    -0.1268
   1512 O          -43.0413     3.8634    19.8154 O       2      m2    -0.1595
   1513 C          -42.2902     3.6164    18.6444 C       2      m2     0.0270
   1514 C          -41.3309     4.7783    18.4089 C       2      m2     0.0800
   1515 C          -41.6368     5.7375    17.4390 C       2      m2     0.0270
   1516 O          -40.6723     4.6098    17.0275 O       2      m2    -0.2660
   1517 H          -41.2833    -5.5436    27.2926 H       2      m2     0.0530
   1518 H          -41.0304    -4.6963    25.6497 H       2      m2     0.0530
   1519 H          -43.7515    -5.6007    26.9059 H       2      m2     0.0530
   1520 H          -42.8826    -4.3133    24.1559 H       2      m2     0.0530
   1521 H          -44.4412    -5.2177    24.4568 H       2      m2     0.0530
   1522 H          -45.3295    -1.1104    25.9150 H       2      m2     0.1268
   1523 H          -46.4322     0.4258    24.4197 H       2      m2     0.1268
   1524 H          -45.6946    -2.2081    21.1994 H       2      m2     0.1268
   1525 H          -44.6056    -3.7271    22.6703 H       2      m2     0.1268
   1526 H          -47.3217    -0.3830    20.9318 H       2      m2     0.0530
   1527 H          -47.6534     0.7060    22.2855 H       2      m2     0.0530
   1528 H          -46.1189     2.5723    22.7641 H       2      m2     0.1268
   1529 H          -44.4901     4.1220    21.8944 H       2      m2     0.1268
   1530 H          -43.6718     1.4553    18.7134 H       2      m2     0.1268
   1531 H          -45.2804    -0.0701    19.5755 H       2      m2     0.1268
   1532 H          -41.6835     2.6912    18.7817 H       2      m2     0.0530
   1533 H          -42.9900     3.4916    17.7865 H       2      m2     0.0530
   1534 H          -40.5747     4.9798    19.1744 H       2      m2     0.0530
   1535 H          -41.0886     6.6786    17.4153 H       2      m2     0.0530
   1536 H          -42.5351     5.6563    16.8294 H       2      m2     0.0530
   1537 O          -27.0881    -5.5272     1.2687 O       2      m2    -0.2660
   1538 C          -26.6423    -4.8272     2.5658 C       2      m2     0.0270
   1539 C          -27.2002    -4.0213     1.5690 C       2      m2     0.0800
   1540 C          -26.2826    -3.2579     0.6198 C       2      m2     0.0270
   1541 O          -26.2284    -1.9025     1.0151 O       2      m2    -0.1595
   1542 C          -25.4646    -1.0216     0.2876 C       2      m2     0.0265
   1543 C          -25.3782     0.2561     0.7063 C       2      m2    -0.1268
   1544 C          -24.6531     1.1818     0.0611 C       2      m2    -0.1268
   1545 C          -23.9702     0.8653    -1.0511 C       2      m2     0.0000
   1546 C          -24.0379    -0.4055    -1.4808 C       2      m2    -0.1268
   1547 C          -24.7668    -1.3232    -0.8260 C       2      m2    -0.1268
   1548 C          -23.1423     1.8982    -1.7817 C       2      m2    -0.1060
   1549 C          -21.7419     1.9184    -1.2119 C       2      m2     0.0000
   1550 C          -21.4153     2.7330    -0.1956 C       2      m2    -0.1268
   1551 C          -20.1718     2.7366     0.3069 C       2      m2    -0.1268
   1552 C          -19.1944     1.9385    -0.1653 C       2      m2     0.0265
   1553 C          -19.5409     1.1247    -1.1831 C       2      m2    -0.1268
   1554 C          -20.7822     1.1122    -1.6945 C       2      m2    -0.1268
   1555 O          -17.9494     2.0100     0.4124 O       2      m2    -0.1595
   1556 C          -16.9145     1.1803    -0.0742 C       2      m2     0.0270
   1557 C          -15.6529     1.4159     0.7497 C       2      m2     0.0800
   1558 C          -14.6239     2.2020     0.2231 C       2      m2     0.0270
   1559 O          -14.4777     0.6753     0.0860 O       2      m2    -0.2660
   1560 H          -27.2665    -5.1922     3.3806 H       2      m2     0.0530
   1561 H          -25.5637    -4.9412     2.6606 H       2      m2     0.0530
   1562 H          -28.2501    -3.7156     1.6208 H       2      m2     0.0530
   1563 H          -25.2510    -3.6787     0.6315 H       2      m2     0.0530
   1564 H          -26.7133    -3.3279    -0.4061 H       2      m2     0.0530
   1565 H          -25.9247     0.5537     1.6179 H       2      m2     0.1268
   1566 H          -24.6181     2.2116     0.4535 H       2      m2     0.1268
   1567 H          -23.4831    -0.7040    -2.3860 H       2      m2     0.1268
   1568 H          -24.7705    -2.3436    -1.2409 H       2      m2     0.1268
   1569 H          -23.1159     1.6787    -2.8737 H       2      m2     0.0530
   1570 H          -23.6135     2.9044    -1.6996 H       2      m2     0.0530
   1571 H          -22.1745     3.4065     0.2354 H       2      m2     0.1268
   1572 H          -19.9411     3.4203     1.1422 H       2      m2     0.1268
   1573 H          -18.8107     0.4339    -1.6333 H       2      m2     0.1268
   1574 H          -21.0160     0.4246    -2.5247 H       2      m2     0.1268
   1575 H          -17.2092     0.1118     0.0451 H       2      m2     0.0530
   1576 H          -16.7419     1.4121    -1.1502 H       2      m2     0.0530
   1577 H          -15.6932     1.1933     1.8208 H       2      m2     0.0530
   1578 H          -13.8287     2.5621     0.8749 H       2      m2     0.0530
   1579 H          -14.6949     2.6282    -0.7761 H       2      m2     0.0530
   1580 O           -4.1266   -37.7172    45.2435 O       2      m2    -0.2660
   1581 C           -3.8270   -38.4920    46.5401 C       2      m2     0.0270
   1582 C           -2.7293   -38.0789    45.7794 C       2      m2     0.0800
   1583 C           -2.0697   -39.0618    44.8177 C       2      m2     0.0270
   1584 O           -0.8766   -39.5492    45.3967 O       2      m2    -0.1595
   1585 C           -0.1073   -40.4452    44.6939 C       2      m2     0.0265
   1586 C            0.9995   -40.9435    45.2788 C       2      m2    -0.1268
   1587 C            1.8059   -41.8250    44.6692 C       2      m2    -0.1268
   1588 C            1.5365   -42.2551    43.4259 C       2      m2     0.0000
   1589 C            0.4335   -41.7754    42.8283 C       2      m2    -0.1268
   1590 C           -0.3661   -40.8935    43.4489 C       2      m2    -0.1268
   1591 C            2.4333   -43.2555    42.7322 C       2      m2    -0.1060
   1592 C            1.9756   -44.6582    43.0623 C       2      m2     0.0000
   1593 C            2.4681   -45.3203    44.1216 C       2      m2    -0.1268
   1594 C            2.0487   -46.5615    44.4091 C       2      m2    -0.1268
   1595 C            1.1252   -47.2064    43.6698 C       2      m2     0.0265
   1596 C            0.6390   -46.5255    42.6124 C       2      m2    -0.1268
   1597 C            1.0511   -45.2829    42.3146 C       2      m2    -0.1268
   1598 O            0.7555   -48.4772    44.0405 O       2      m2    -0.1595
   1599 C           -0.2102   -49.1661    43.2732 C       2      m2     0.0270
   1600 C           -0.4756   -50.5282    43.9058 C       2      m2     0.0800
   1601 C            0.0961   -51.6722    43.3415 C       2      m2     0.0270
   1602 O           -1.3607   -51.3558    42.9560 O       2      m2    -0.2660
   1603 H           -4.1616   -37.8873    47.3821 H       2      m2     0.0530
   1604 H           -4.2371   -39.4954    46.4393 H       2      m2     0.0530
   1605 H           -2.1731   -37.1747    46.0470 H       2      m2     0.0530
   1606 H           -2.7420   -39.9226    44.5979 H       2      m2     0.0530
   1607 H           -1.8286   -38.5140    43.8772 H       2      m2     0.0530
   1608 H            1.2529   -40.6146    46.3015 H       2      m2     0.1268
   1609 H            2.6966   -42.2000    45.1999 H       2      m2     0.1268
   1610 H            0.1758   -42.1126    41.8103 H       2      m2     0.1268
   1611 H           -1.2520   -40.5484    42.8926 H       2      m2     0.1268
   1612 H            2.4250   -43.0917    41.6303 H       2      m2     0.0530
   1613 H            3.4939   -43.1067    43.0395 H       2      m2     0.0530
   1614 H            3.2239   -44.8422    44.7665 H       2      m2     0.1268
   1615 H            2.4768   -47.0739    45.2880 H       2      m2     0.1268
   1616 H           -0.1219   -46.9689    41.9510 H       2      m2     0.1268
   1617 H            0.6191   -44.7670    41.4405 H       2      m2     0.1268
   1618 H           -1.1658   -48.5920    43.2782 H       2      m2     0.0530
   1619 H            0.1668   -49.2731    42.2302 H       2      m2     0.0530
   1620 H           -0.8780   -50.5491    44.9237 H       2      m2     0.0530
   1621 H            0.1039   -52.6069    43.9010 H       2      m2     0.0530
   1622 H            0.7067   -51.6123    42.4422 H       2      m2     0.0530
   1623 O           45.1550    39.4133    49.9730 O       2      m2    -0.2660
   1624 C           46.3434    39.4169    48.9939 C       2      m2     0.0270
   1625 C           45.9606    40.6490    49.5319 C       2      m2     0.0800
   1626 C           45.0513    41.5703    48.7255 C       2      m2     0.0270
   1627 O           45.8263    42.6034    48.1525 O       2      m2    -0.1595
   1628 C           45.2057    43.5629    47.3890 C       2      m2     0.0265
   1629 C           45.9629    44.5114    46.8040 C       2      m2    -0.1268
   1630 C           45.4430    45.4829    46.0392 C       2      m2    -0.1268
   1631 C           44.1195    45.5501    45.8216 C       2      m2     0.0000
   1632 C           43.3482    44.6091    46.3904 C       2      m2    -0.1268
   1633 C           43.8804    43.6414    47.1537 C       2      m2    -0.1268
   1634 C           43.5230    46.6353    44.9540 C       2      m2    -0.1060
   1635 C           43.4974    46.1742    43.5143 C       2      m2     0.0000
   1636 C           44.5262    46.4181    42.6865 C       2      m2    -0.1268
   1637 C           44.4956    45.9973    41.4133 C       2      m2    -0.1268
   1638 C           43.4539    45.3162    40.8975 C       2      m2     0.0265
   1639 C           42.4315    45.0771    41.7435 C       2      m2    -0.1268
   1640 C           42.4506    45.4933    43.0198 C       2      m2    -0.1268
   1641 O           43.5105    44.9242    39.5815 O       2      m2    -0.1595
   1642 C           42.4241    44.2112    39.0267 C       2      m2     0.0270
   1643 C           42.7423    43.8592    37.5773 C       2      m2     0.0800
   1644 C           42.1643    44.6044    36.5454 C       2      m2     0.0270
   1645 O           41.4800    43.2758    36.9166 O       2      m2    -0.2660
   1646 H           47.1597    38.8568    49.4485 H       2      m2     0.0530
   1647 H           45.9828    39.0904    48.0199 H       2      m2     0.0530
   1648 H           46.5012    41.0798    50.3807 H       2      m2     0.0530
   1649 H           44.5339    41.0133    47.9110 H       2      m2     0.0530
   1650 H           44.3024    42.0120    49.4232 H       2      m2     0.0530
   1651 H           47.0555    44.4881    46.9585 H       2      m2     0.1268
   1652 H           46.1137    46.2304    45.5841 H       2      m2     0.1268
   1653 H           42.2576    44.6275    46.2267 H       2      m2     0.1268
   1654 H           43.1817    42.9064    47.5836 H       2      m2     0.1268
   1655 H           42.4956    46.8931    45.2993 H       2      m2     0.0530
   1656 H           44.1074    47.5787    45.0532 H       2      m2     0.0530
   1657 H           45.4089    46.9679    43.0531 H       2      m2     0.1268
   1658 H           45.3600    46.2168    40.7630 H       2      m2     0.1268
   1659 H           41.5374    44.5249    41.4140 H       2      m2     0.1268
   1660 H           41.5904    45.2686    43.6727 H       2      m2     0.1268
   1661 H           42.2802    43.2591    39.5887 H       2      m2     0.0530
   1662 H           41.5067    44.8395    39.0965 H       2      m2     0.0530
   1663 H           43.6089    43.2185    37.3856 H       2      m2     0.0530
   1664 H           42.5502    44.5156    35.5306 H       2      m2     0.0530
   1665 H           41.4696    45.4155    36.7566 H       2      m2     0.0530
   1666 O           47.0813    48.9007   -26.9534 O       2      m2    -0.2660
   1667 C           48.0100    47.7116   -26.6454 C       2      m2     0.0270
   1668 C           46.7411    47.4120   -27.1497 C       2      m2     0.0800
   1669 C           45.6218    47.0293   -26.1871 C       2      m2     0.0270
   1670 O           45.4391    45.6287   -26.2197 O       2      m2    -0.1595
   1671 C           44.4655    45.0607   -25.4334 C       2      m2     0.0265
   1672 C           44.3374    43.7195   -25.4328 C       2      m2    -0.1268
   1673 C           43.4186    43.0804   -24.6937 C       2      m2    -0.1268
   1674 C           42.5722    43.7663   -23.9084 C       2      m2     0.0000
   1675 C           42.6886    45.1043   -23.8896 C       2      m2    -0.1268
   1676 C           43.6126    45.7325   -24.6338 C       2      m2    -0.1268
   1677 C           41.5383    43.0562   -23.0640 C       2      m2    -0.1060
   1678 C           42.1350    42.7124   -21.7179 C       2      m2     0.0000
   1679 C           42.7538    41.5390   -21.5097 C       2      m2    -0.1268
   1680 C           43.2863    41.2483   -20.3134 C       2      m2    -0.1268
   1681 C           43.2363    42.0983   -19.2693 C       2      m2     0.0265
   1682 C           42.6146    43.2729   -19.4973 C       2      m2    -0.1268
   1683 C           42.0777    43.5752   -20.6901 C       2      m2    -0.1268
   1684 O           43.8101    41.7153   -18.0806 O       2      m2    -0.1595
   1685 C           43.7632    42.5958   -16.9767 C       2      m2     0.0270
   1686 C           44.4965    41.9634   -15.7985 C       2      m2     0.0800
   1687 C           43.7607    41.3833   -14.7611 C       2      m2     0.0270
   1688 O           44.2604    42.8235   -14.5437 O       2      m2    -0.2660
   1689 H           48.8634    47.7635   -27.3204 H       2      m2     0.0530
   1690 H           48.2077    47.7028   -25.5748 H       2      m2     0.0530
   1691 H           46.6016    47.1852   -28.2115 H       2      m2     0.0530
   1692 H           45.8647    47.3374   -25.1442 H       2      m2     0.0530
   1693 H           44.6874    47.5331   -26.5276 H       2      m2     0.0530
   1694 H           45.0166    43.1214   -26.0648 H       2      m2     0.1268
   1695 H           43.3634    41.9799   -24.7323 H       2      m2     0.1268
   1696 H           42.0161    45.7000   -23.2499 H       2      m2     0.1268
   1697 H           43.6455    46.8312   -24.5625 H       2      m2     0.1268
   1698 H           40.6316    43.6911   -22.9379 H       2      m2     0.0530
   1699 H           41.1788    42.1365   -23.5799 H       2      m2     0.0530
   1700 H           42.8298    40.8042   -22.3282 H       2      m2     0.1268
   1701 H           43.7870    40.2736   -20.1804 H       2      m2     0.1268
   1702 H           42.5264    44.0332   -18.7053 H       2      m2     0.1268
   1703 H           41.5832    44.5516   -20.8265 H       2      m2     0.1268
   1704 H           44.2855    43.5455   -17.2378 H       2      m2     0.0530
   1705 H           42.6977    42.8017   -16.7243 H       2      m2     0.0530
   1706 H           45.5618    41.7419   -15.9192 H       2      m2     0.0530
   1707 H           44.2585    40.7384   -14.0380 H       2      m2     0.0530
   1708 H           42.6722    41.3979   -14.7654 H       2      m2     0.0530
   1709 O          -28.5194    21.9917    18.0572 O       2      m2    -0.2660
   1710 C          -28.2457    20.6424    18.7469 C       2      m2     0.0270
   1711 C          -28.3006    21.7741    19.5656 C       2      m2     0.0800
   1712 C          -27.0052    22.4629    19.9821 C       2      m2     0.0270
   1713 O          -26.6954    22.1050    21.3133 O       2      m2    -0.1595
   1714 C          -25.5679    22.6248    21.9025 C       2      m2     0.0265
   1715 C          -25.2546    22.2336    23.1532 C       2      m2    -0.1268
   1716 C          -24.1720    22.6859    23.8032 C       2      m2    -0.1268
   1717 C          -23.3400    23.5647    23.2212 C       2      m2     0.0000
   1718 C          -23.6313    23.9616    21.9715 C       2      m2    -0.1268
   1719 C          -24.7178    23.5016    21.3310 C       2      m2    -0.1268
   1720 C          -22.1118    24.0745    23.9407 C       2      m2    -0.1060
   1721 C          -20.9465    23.1505    23.6679 C       2      m2     0.0000
   1722 C          -20.6827    22.1067    24.4704 C       2      m2    -0.1268
   1723 C          -19.6508    21.2892    24.2140 C       2      m2    -0.1268
   1724 C          -18.8335    21.4596    23.1565 C       2      m2     0.0265
   1725 C          -19.1152    22.5102    22.3596 C       2      m2    -0.1268
   1726 C          -20.1451    23.3354    22.6061 C       2      m2    -0.1268
   1727 O          -17.8012    20.5711    22.9725 O       2      m2    -0.1595
   1728 C          -16.9350    20.7390    21.8690 C       2      m2     0.0270
   1729 C          -15.9059    19.6135    21.8628 C       2      m2     0.0800
   1730 C          -14.6072    19.8661    22.3143 C       2      m2     0.0270
   1731 O          -14.8409    19.9168    20.7932 O       2      m2    -0.2660
   1732 H          -29.1287    20.0153    18.6286 H       2      m2     0.0530
   1733 H          -27.2959    20.2585    18.3785 H       2      m2     0.0530
   1734 H          -29.2100    22.0145    20.1257 H       2      m2     0.0530
   1735 H          -26.1594    22.1631    19.3216 H       2      m2     0.0530
   1736 H          -27.1663    23.5644    19.9222 H       2      m2     0.0530
   1737 H          -25.9141    21.5107    23.6638 H       2      m2     0.1268
   1738 H          -23.9655    22.3270    24.8251 H       2      m2     0.1268
   1739 H          -22.9659    24.6762    21.4586 H       2      m2     0.1268
   1740 H          -24.8869    23.8739    20.3083 H       2      m2     0.1268
   1741 H          -21.8703    25.1129    23.6170 H       2      m2     0.0530
   1742 H          -22.3047    24.1496    25.0354 H       2      m2     0.0530
   1743 H          -21.3196    21.9140    25.3496 H       2      m2     0.1268
   1744 H          -19.4654    20.4418    24.8965 H       2      m2     0.1268
   1745 H          -18.5050    22.7287    21.4691 H       2      m2     0.1268
   1746 H          -20.3357    24.1786    21.9210 H       2      m2     0.1268
   1747 H          -17.5224    20.6738    20.9237 H       2      m2     0.0530
   1748 H          -16.4419    21.7352    21.9455 H       2      m2     0.0530
   1749 H          -16.2721    18.5869    21.7618 H       2      m2     0.0530
   1750 H          -13.9359    19.0350    22.5272 H       2      m2     0.0530
   1751 H          -14.3088    20.8591    22.6460 H       2      m2     0.0530
   1752 O            4.4295    17.8407    -4.5965 O       2      m2    -0.2660
   1753 C            3.4916    16.9726    -3.7375 C       2      m2     0.0270
   1754 C            2.8931    17.9337    -4.5574 C       2      m2     0.0800
   1755 C            2.4940    19.2816    -3.9659 C       2      m2     0.0270
   1756 O            1.0988    19.2972    -3.7439 O       2      m2    -0.1595
   1757 C            0.5150    20.4273    -3.2235 C       2      m2     0.0265
   1758 C           -0.8074    20.4104    -2.9661 C       2      m2    -0.1268
   1759 C           -1.4588    21.4654    -2.4547 C       2      m2    -0.1268
   1760 C           -0.8052    22.6042    -2.1730 C       2      m2     0.0000
   1761 C            0.5153    22.6386    -2.4159 C       2      m2    -0.1268
   1762 C            1.1563    21.5759    -2.9277 C       2      m2    -0.1268
   1763 C           -1.5273    23.7969    -1.5878 C       2      m2    -0.1060
   1764 C           -1.5238    23.6993    -0.0790 C       2      m2     0.0000
   1765 C           -2.5176    23.0832     0.5813 C       2      m2    -0.1268
   1766 C           -2.4998    22.9959     1.9196 C       2      m2    -0.1268
   1767 C           -1.5038    23.5081     2.6685 C       2      m2     0.0265
   1768 C           -0.5127    24.1198     1.9889 C       2      m2    -0.1268
   1769 C           -0.5195    24.2135     0.6496 C       2      m2    -0.1268
   1770 O           -1.5695    23.3705     4.0343 O       2      m2    -0.1595
   1771 C           -0.5329    23.9046     4.8321 C       2      m2     0.0270
   1772 C           -0.8146    23.5901     6.2976 C       2      m2     0.0800
   1773 C           -1.3253    24.5902     7.1302 C       2      m2     0.0270
   1774 O            0.1954    24.3523     7.1748 O       2      m2    -0.2660
   1775 H            3.5734    15.9419    -4.0809 H       2      m2     0.0530
   1776 H            3.7027    17.1780    -2.6894 H       2      m2     0.0530
   1777 H            2.4652    17.6537    -5.5253 H       2      m2     0.0530
   1778 H            3.0154    19.4673    -2.9989 H       2      m2     0.0530
   1779 H            2.7610    20.0739    -4.7034 H       2      m2     0.0530
   1780 H           -1.3784    19.4911    -3.1832 H       2      m2     0.1268
   1781 H           -2.5420    21.3911    -2.2625 H       2      m2     0.1268
   1782 H            1.0866    23.5543    -2.1889 H       2      m2     0.1268
   1783 H            2.2394    21.6826    -3.0971 H       2      m2     0.1268
   1784 H           -1.0477    24.7466    -1.9183 H       2      m2     0.0530
   1785 H           -2.5707    23.8490    -1.9749 H       2      m2     0.0530
   1786 H           -3.3584    22.6408     0.0218 H       2      m2     0.1268
   1787 H           -3.3345    22.4821     2.4270 H       2      m2     0.1268
   1788 H            0.3462    24.5664     2.5142 H       2      m2     0.1268
   1789 H            0.3175    24.7206     0.1408 H       2      m2     0.1268
   1790 H            0.4333    23.4221     4.5559 H       2      m2     0.0530
   1791 H           -0.4750    25.0039     4.6601 H       2      m2     0.0530
   1792 H           -0.8649    22.5375     6.5938 H       2      m2     0.0530
   1793 H           -1.7388    24.3271     8.1031 H       2      m2     0.0530
   1794 H           -1.5013    25.5981     6.7583 H       2      m2     0.0530
   1795 O          -16.0208    20.8594   -39.4179 O       2      m2    -0.2660
   1796 C          -15.6031    21.1440   -40.8724 C       2      m2     0.0270
   1797 C          -16.3876    22.1106   -40.2366 C       2      m2     0.0800
   1798 C          -17.8948    22.1256   -40.4687 C       2      m2     0.0270
   1799 O          -18.2147    23.1566   -41.3802 O       2      m2    -0.1595
   1800 C          -19.5287    23.3618   -41.7267 C       2      m2     0.0265
   1801 C          -19.8150    24.3123   -42.6377 C       2      m2    -0.1268
   1802 C          -21.0674    24.5776   -43.0378 C       2      m2    -0.1268
   1803 C          -22.1074    23.8921   -42.5359 C       2      m2     0.0000
   1804 C          -21.8420    22.9353   -41.6314 C       2      m2    -0.1268
   1805 C          -20.5840    22.6787   -41.2391 C       2      m2    -0.1268
   1806 C          -23.5226    24.1762   -42.9860 C       2      m2    -0.1060
   1807 C          -23.8491    23.3263   -44.1931 C       2      m2     0.0000
   1808 C          -23.6241    23.7717   -45.4398 C       2      m2    -0.1268
   1809 C          -23.9104    23.0056   -46.5029 C       2      m2    -0.1268
   1810 C          -24.4286    21.7672   -46.3884 C       2      m2     0.0265
   1811 C          -24.6445    21.3349   -45.1296 C       2      m2    -0.1268
   1812 C          -24.3621    22.0925   -44.0577 C       2      m2    -0.1268
   1813 O          -24.6896    21.0543   -47.5340 O       2      m2    -0.1595
   1814 C          -25.2350    19.7552   -47.4289 C       2      m2     0.0270
   1815 C          -25.3943    19.1631   -48.8253 C       2      m2     0.0800
   1816 C          -26.6595    19.1312   -49.4190 C       2      m2     0.0270
   1817 O          -26.1818    17.8443   -48.7214 O       2      m2    -0.2660
   1818 H          -14.5198    21.2564   -40.8989 H       2      m2     0.0530
   1819 H          -16.0516    20.3841   -41.5101 H       2      m2     0.0530
   1820 H          -15.9287    23.0042   -39.8014 H       2      m2     0.0530
   1821 H          -18.2480    21.1541   -40.8843 H       2      m2     0.0530
   1822 H          -18.3917    22.3275   -39.4914 H       2      m2     0.0530
   1823 H          -18.9859    24.8958   -43.0741 H       2      m2     0.1268
   1824 H          -21.2396    25.3658   -43.7893 H       2      m2     0.1268
   1825 H          -22.6704    22.3460   -41.2038 H       2      m2     0.1268
   1826 H          -20.4488    21.8781   -40.4948 H       2      m2     0.1268
   1827 H          -24.2443    23.9757   -42.1612 H       2      m2     0.0530
   1828 H          -23.6464    25.2578   -43.2230 H       2      m2     0.0530
   1829 H          -23.1974    24.7762   -45.5965 H       2      m2     0.1268
   1830 H          -23.7117    23.4062   -47.5121 H       2      m2     0.1268
   1831 H          -25.0626    20.3347   -44.9353 H       2      m2     0.1268
   1832 H          -24.5537    21.6908   -43.0485 H       2      m2     0.1268
   1833 H          -24.5338    19.1042   -46.8567 H       2      m2     0.0530
   1834 H          -26.2154    19.8169   -46.9033 H       2      m2     0.0530
   1835 H          -24.4910    19.0262   -49.4283 H       2      m2     0.0530
   1836 H          -26.7534    18.9250   -50.4845 H       2      m2     0.0530
   1837 H          -27.5389    19.4975   -48.8921 H       2      m2     0.0530
   1838 O          -44.3884    46.7814    51.0824 O       2      m2    -0.2660
   1839 C          -44.6498    47.8566    50.0116 C       2      m2     0.0270
   1840 C          -45.4825    46.7338    50.0002 C       2      m2     0.0800
   1841 C          -45.1816    45.5857    49.0426 C       2      m2     0.0270
   1842 O          -46.0633    45.6558    47.9408 O       2      m2    -0.1595
   1843 C          -45.9789    44.7046    46.9525 C       2      m2     0.0265
   1844 C          -46.7885    44.8136    45.8812 C       2      m2    -0.1268
   1845 C          -46.7714    43.9342    44.8685 C       2      m2    -0.1268
   1846 C          -45.9290    42.8885    44.8825 C       2      m2     0.0000
   1847 C          -45.1084    42.7663    45.9389 C       2      m2    -0.1268
   1848 C          -45.1347    43.6533    46.9463 C       2      m2    -0.1268
   1849 C          -45.8944    41.8959    43.7425 C       2      m2    -0.1060
   1850 C          -44.9157    42.3679    42.6911 C       2      m2     0.0000
   1851 C          -45.3103    43.1505    41.6738 C       2      m2    -0.1268
   1852 C          -44.4314    43.5696    40.7513 C       2      m2    -0.1268
   1853 C          -43.1255    43.2400    40.7884 C       2      m2     0.0265
   1854 C          -42.7464    42.4568    41.8185 C       2      m2    -0.1268
   1855 C          -43.6168    42.0311    42.7478 C       2      m2    -0.1268
   1856 O          -42.2980    43.7165    39.8000 O       2      m2    -0.1595
   1857 C          -40.9267    43.3770    39.8253 C       2      m2     0.0270
   1858 C          -40.2203    44.0542    38.6555 C       2      m2     0.0800
   1859 C          -39.8968    43.3054    37.5203 C       2      m2     0.0270
   1860 O          -38.7815    43.5145    38.5612 O       2      m2    -0.2660
   1861 H          -44.9733    48.7665    50.5158 H       2      m2     0.0530
   1862 H          -43.7740    47.9155    49.3677 H       2      m2     0.0530
   1863 H          -46.4773    46.7718    50.4558 H       2      m2     0.0530
   1864 H          -44.1330    45.6369    48.6695 H       2      m2     0.0530
   1865 H          -45.3473    44.6286    49.5897 H       2      m2     0.0530
   1866 H          -47.4939    45.6612    45.8332 H       2      m2     0.1268
   1867 H          -47.4562    44.0773    44.0163 H       2      m2     0.1268
   1868 H          -44.3970    41.9246    45.9807 H       2      m2     0.1268
   1869 H          -44.4300    43.4845    47.7758 H       2      m2     0.1268
   1870 H          -45.6116    40.8837    44.1122 H       2      m2     0.0530
   1871 H          -46.9109    41.7708    43.3039 H       2      m2     0.0530
   1872 H          -46.3664    43.4567    41.5927 H       2      m2     0.1268
   1873 H          -44.7932    44.2117    39.9296 H       2      m2     0.1268
   1874 H          -41.6988    42.1377    41.9351 H       2      m2     0.1268
   1875 H          -43.2553    41.3950    43.5733 H       2      m2     0.1268
   1876 H          -40.4690    43.7544    40.7692 H       2      m2     0.0530
   1877 H          -40.8282    42.2687    39.7683 H       2      m2     0.0530
   1878 H          -40.2246    45.1483    38.6202 H       2      m2     0.0530
   1879 H          -39.6033    43.8124    36.6018 H       2      m2     0.0530
   1880 H          -40.1162    42.2405    37.4659 H       2      m2     0.0530
   1881 O           -0.0382    38.0559     4.7660 O       2      m2    -0.2660
   1882 C            1.3405    38.2842     4.1193 C       2      m2     0.0270
   1883 C            0.7930    39.3499     4.8396 C       2      m2     0.0800
   1884 C            0.0524    40.4566     4.0963 C       2      m2     0.0270
   1885 O            0.8924    41.5875     3.9891 O       2      m2    -0.1595
   1886 C            0.4213    42.7161     3.3621 C       2      m2     0.0265
   1887 C            1.2503    43.7683     3.2186 C       2      m2    -0.1268
   1888 C            0.8768    44.9073     2.6168 C       2      m2    -0.1268
   1889 C           -0.3641    45.0470     2.1229 C       2      m2     0.0000
   1890 C           -1.2036    44.0062     2.2497 C       2      m2    -0.1268
   1891 C           -0.8180    42.8711     2.8539 C       2      m2    -0.1268
   1892 C           -0.7936    46.3228     1.4344 C       2      m2    -0.1060
   1893 C           -0.4715    46.2342    -0.0403 C       2      m2     0.0000
   1894 C            0.7072    46.6602    -0.5224 C       2      m2    -0.1268
   1895 C            0.9848    46.5693    -1.8315 C       2      m2    -0.1268
   1896 C            0.1177    46.0540    -2.7246 C       2      m2     0.0265
   1897 C           -1.0590    45.6280    -2.2226 C       2      m2    -0.1268
   1898 C           -1.3484    45.7138    -0.9144 C       2      m2    -0.1268
   1899 O            0.4888    46.0003    -4.0469 O       2      m2    -0.1595
   1900 C           -0.4115    45.4644    -4.9947 C       2      m2     0.0270
   1901 C            0.2426    45.4787    -6.3724 C       2      m2     0.0800
   1902 C           -0.1170    46.4657    -7.2947 C       2      m2     0.0270
   1903 O           -0.8103    45.0973    -7.4289 O       2      m2    -0.2660
   1904 H            2.0552    37.6162     4.5984 H       2      m2     0.0530
   1905 H            1.2251    38.2156     3.0389 H       2      m2     0.0530
   1906 H            1.1076    39.5479     5.8693 H       2      m2     0.0530
   1907 H           -0.2420    40.1274     3.0734 H       2      m2     0.0530
   1908 H           -0.8537    40.7227     4.6888 H       2      m2     0.0530
   1909 H            2.2792    43.6905     3.6107 H       2      m2     0.1268
   1910 H            1.6009    45.7339     2.5263 H       2      m2     0.1268
   1911 H           -2.2282    44.0816     1.8484 H       2      m2     0.1268
   1912 H           -1.5641    42.0633     2.9172 H       2      m2     0.1268
   1913 H           -1.8827    46.5026     1.5856 H       2      m2     0.0530
   1914 H           -0.2879    47.2027     1.8940 H       2      m2     0.0530
   1915 H            1.4591    47.0879     0.1613 H       2      m2     0.1268
   1916 H            1.9643    46.9301    -2.1904 H       2      m2     0.1268
   1917 H           -1.8303    45.1889    -2.8747 H       2      m2     0.1268
   1918 H           -2.3240    45.3473    -0.5533 H       2      m2     0.1268
   1919 H           -0.6386    44.4050    -4.7323 H       2      m2     0.0530
   1920 H           -1.3467    46.0698    -4.9867 H       2      m2     0.0530
   1921 H            1.1567    44.8923    -6.5100 H       2      m2     0.0530
   1922 H            0.4929    46.6258    -8.1830 H       2      m2     0.0530
   1923 H           -0.8755    47.2096    -7.0573 H       2      m2     0.0530
   1924 O           22.3089   -14.3900   -44.2003 O       2      m2    -0.2660
   1925 C           22.0777   -14.9334   -42.7782 C       2      m2     0.0270
   1926 C           23.2217   -15.3760   -43.4486 C       2      m2     0.0800
   1927 C           23.1972   -16.7201   -44.1686 C       2      m2     0.0270
   1928 O           23.8702   -17.6815   -43.3818 O       2      m2    -0.1595
   1929 C           23.9813   -18.9700   -43.8467 C       2      m2     0.0265
   1930 C           24.5778   -19.8895   -43.0631 C       2      m2    -0.1268
   1931 C           24.7258   -21.1700   -43.4339 C       2      m2    -0.1268
   1932 C           24.2760   -21.5953   -44.6256 C       2      m2     0.0000
   1933 C           23.6718   -20.6951   -45.4185 C       2      m2    -0.1268
   1934 C           23.5293   -19.4161   -45.0361 C       2      m2    -0.1268
   1935 C           24.4292   -23.0382   -45.0506 C       2      m2    -0.1060
   1936 C           23.2321   -23.8332   -44.5803 C       2      m2     0.0000
   1937 C           23.2270   -24.4421   -43.3835 C       2      m2    -0.1268
   1938 C           22.1562   -25.1381   -42.9737 C       2      m2    -0.1268
   1939 C           21.0421   -25.2651   -43.7205 C       2      m2     0.0265
   1940 C           21.0633   -24.6444   -44.9174 C       2      m2    -0.1268
   1941 C           22.1291   -23.9450   -45.3385 C       2      m2    -0.1268
   1942 O           19.9930   -25.9973   -43.2185 O       2      m2    -0.1595
   1943 C           18.8192   -26.1405   -43.9919 C       2      m2     0.0270
   1944 C           17.7970   -26.9556   -43.2066 C       2      m2     0.0800
   1945 C           17.6006   -28.3027   -43.5241 C       2      m2     0.0270
   1946 O           16.6106   -27.2902   -44.1289 O       2      m2    -0.2660
   1947 H           22.1464   -14.0995   -42.0806 H       2      m2     0.0530
   1948 H           21.1597   -15.5187   -42.7827 H       2      m2     0.0530
   1949 H           24.1973   -14.9217   -43.2479 H       2      m2     0.0530
   1950 H           22.1520   -17.0644   -44.3432 H       2      m2     0.0530
   1951 H           23.7283   -16.5995   -45.1413 H       2      m2     0.0530
   1952 H           24.9591   -19.5778   -42.0753 H       2      m2     0.1268
   1953 H           25.2202   -21.8780   -42.7483 H       2      m2     0.1268
   1954 H           23.2821   -21.0102   -46.4010 H       2      m2     0.1268
   1955 H           23.0218   -18.7397   -45.7419 H       2      m2     0.1268
   1956 H           24.5361   -23.1120   -46.1571 H       2      m2     0.0530
   1957 H           25.3712   -23.4677   -44.6390 H       2      m2     0.0530
   1958 H           24.1092   -24.3703   -42.7259 H       2      m2     0.1268
   1959 H           22.1894   -25.6250   -41.9836 H       2      m2     0.1268
   1960 H           20.1976   -24.6887   -45.5968 H       2      m2     0.1268
   1961 H           22.0947   -23.4522   -46.3248 H       2      m2     0.1268
   1962 H           18.3801   -25.1349   -44.1885 H       2      m2     0.0530
   1963 H           19.0793   -26.6395   -44.9534 H       2      m2     0.0530
   1964 H           17.4421   -26.5489   -42.2542 H       2      m2     0.0530
   1965 H           17.0511   -28.9468   -42.8386 H       2      m2     0.0530
   1966 H           18.1452   -28.7749   -44.3398 H       2      m2     0.0530
   1967 O          -16.5776    49.1563    42.5653 O       2      m2    -0.2660
   1968 C          -15.9991    47.8019    43.0148 C       2      m2     0.0270
   1969 C          -16.8239    47.7966    41.8862 C       2      m2     0.0800
   1970 C          -18.2966    47.4292    42.0343 C       2      m2     0.0270
   1971 O          -18.4917    46.1019    41.5911 O       2      m2    -0.1595
   1972 C          -19.7554    45.5628    41.6232 C       2      m2     0.0265
   1973 C          -19.9190    44.2789    41.2489 C       2      m2    -0.1268
   1974 C          -21.1143    43.6705    41.2529 C       2      m2    -0.1268
   1975 C          -22.2185    44.3306    41.6382 C       2      m2     0.0000
   1976 C          -22.0751    45.6098    42.0219 C       2      m2    -0.1268
   1977 C          -20.8732    46.2078    42.0139 C       2      m2    -0.1268
   1978 C          -23.5698    43.6525    41.6554 C       2      m2    -0.1060
   1979 C          -23.7850    42.9887    42.9967 C       2      m2     0.0000
   1980 C          -23.4165    41.7153    43.2106 C       2      m2    -0.1268
   1981 C          -23.6053    41.1394    44.4072 C       2      m2    -0.1268
   1982 C          -24.1625    41.7897    45.4473 C       2      m2     0.0265
   1983 C          -24.5230    43.0682    45.2158 C       2      m2    -0.1268
   1984 C          -24.3393    43.6554    44.0225 C       2      m2    -0.1268
   1985 O          -24.3159    41.1191    46.6371 O       2      m2    -0.1595
   1986 C          -24.9007    41.7880    47.7356 C       2      m2     0.0270
   1987 C          -24.9231    40.8519    48.9394 C       2      m2     0.0800
   1988 C          -26.1175    40.2199    49.2975 C       2      m2     0.0270
   1989 O          -25.7488    41.5039    50.0634 O       2      m2    -0.2660
   1990 H          -14.9169    47.8383    42.8954 H       2      m2     0.0530
   1991 H          -16.3947    47.5742    44.0032 H       2      m2     0.0530
   1992 H          -16.3931    47.7847    40.8798 H       2      m2     0.0530
   1993 H          -18.6264    47.5074    43.0957 H       2      m2     0.0530
   1994 H          -18.8908    48.1241    41.3964 H       2      m2     0.0530
   1995 H          -19.0340    43.7032    40.9272 H       2      m2     0.1268
   1996 H          -21.1857    42.6162    40.9384 H       2      m2     0.1268
   1997 H          -22.9587    46.1808    42.3529 H       2      m2     0.1268
   1998 H          -20.8382    47.2581    42.3439 H       2      m2     0.1268
   1999 H          -24.3807    44.3885    41.4499 H       2      m2     0.0530
   2000 H          -23.6413    42.9052    40.8322 H       2      m2     0.0530
   2001 H          -22.9513    41.1332    42.3979 H       2      m2     0.1268
   2002 H          -23.2896    40.0908    44.5448 H       2      m2     0.1268
   2003 H          -24.9836    43.6816    46.0062 H       2      m2     0.1268
   2004 H          -24.6480    44.7054    43.8855 H       2      m2     0.1268
   2005 H          -24.2810    42.6759    48.0012 H       2      m2     0.0530
   2006 H          -25.9302    42.1093    47.4560 H       2      m2     0.0530
   2007 H          -23.9637    40.4922    49.3248 H       2      m2     0.0530
   2008 H          -26.1012    39.3884    50.0010 H       2      m2     0.0530
   2009 H          -27.0393    40.4040    48.7485 H       2      m2     0.0530
   2010 O            2.8106     0.1454   -36.9199 O       2      m2    -0.2660
   2011 C            1.8530    -1.0384   -37.1499 C       2      m2     0.0270
   2012 C            2.9601    -0.9435   -37.9982 C       2      m2     0.0800
   2013 C            2.7997    -0.3035   -39.3731 C       2      m2     0.0270
   2014 O            2.7384    -1.3184   -40.3541 O       2      m2    -0.1595
   2015 C            2.6068    -0.9665   -41.6761 C       2      m2     0.0265
   2016 C            2.4951    -1.9443   -42.5962 C       2      m2    -0.1268
   2017 C            2.3589    -1.6930   -43.9066 C       2      m2    -0.1268
   2018 C            2.3277    -0.4305   -44.3632 C       2      m2     0.0000
   2019 C            2.4303     0.5589   -43.4606 C       2      m2    -0.1268
   2020 C            2.5660     0.2946   -42.1514 C       2      m2    -0.1268
   2021 C            2.1655    -0.1349   -45.8371 C       2      m2    -0.1060
   2022 C            0.6946    -0.0431   -46.1751 C       2      m2     0.0000
   2023 C            0.0011    -1.1244   -46.5662 C       2      m2    -0.1268
   2024 C           -1.3053    -1.0324   -46.8559 C       2      m2    -0.1268
   2025 C           -1.9888     0.1257   -46.7723 C       2      m2     0.0265
   2026 C           -1.2777     1.2001   -46.3747 C       2      m2    -0.1268
   2027 C            0.0302     1.1204   -46.0821 C       2      m2    -0.1268
   2028 O           -3.3263     0.1249   -47.0883 O       2      m2    -0.1595
   2029 C           -4.0550     1.3327   -47.0071 C       2      m2     0.0270
   2030 C           -5.5128     1.0645   -47.3657 C       2      m2     0.0800
   2031 C           -5.9861     1.4181   -48.6327 C       2      m2     0.0270
   2032 O           -6.2531     2.4091   -47.4848 O       2      m2    -0.2660
   2033 H            1.8949    -1.6843   -36.2737 H       2      m2     0.0530
   2034 H            0.8831    -0.6395   -37.4421 H       2      m2     0.0530
   2035 H            3.8561    -1.5457   -37.8163 H       2      m2     0.0530
   2036 H            1.8693     0.3071   -39.4270 H       2      m2     0.0530
   2037 H            3.6912     0.3393   -39.5599 H       2      m2     0.0530
   2038 H            2.5150    -2.9951   -42.2588 H       2      m2     0.1268
   2039 H            2.2690    -2.5353   -44.6124 H       2      m2     0.1268
   2040 H            2.4000     1.6085   -43.7980 H       2      m2     0.1268
   2041 H            2.6428     1.1604   -41.4748 H       2      m2     0.1268
   2042 H            2.6875     0.8115   -46.1071 H       2      m2     0.0530
   2043 H            2.6599    -0.9236   -46.4493 H       2      m2     0.0530
   2044 H            0.5058    -2.1012   -46.6494 H       2      m2     0.1268
   2045 H           -1.8416    -1.9431   -47.1741 H       2      m2     0.1268
   2046 H           -1.7504     2.1897   -46.2735 H       2      m2     0.1268
   2047 H            0.5659     2.0283   -45.7573 H       2      m2     0.1268
   2048 H           -4.0225     1.7153   -45.9605 H       2      m2     0.0530
   2049 H           -3.5998     2.0761   -47.7009 H       2      m2     0.0530
   2050 H           -6.0750     0.3697   -46.7336 H       2      m2     0.0530
   2051 H           -6.9447     1.0345   -48.9799 H       2      m2     0.0530
   2052 H           -5.3396     1.9060   -49.3600 H       2      m2     0.0530
   2053 O           21.5312    36.3956   -21.9626 O       2      m2    -0.2660
   2054 C           20.8927    37.0318   -20.7141 C       2      m2     0.0270
   2055 C           20.3954    37.4351   -21.9569 C       2      m2     0.0800
   2056 C           20.9047    38.7278   -22.5856 C       2      m2     0.0270
   2057 O           19.9392    39.7437   -22.4071 O       2      m2    -0.1595
   2058 C           20.1850    40.9987   -22.9101 C       2      m2     0.0265
   2059 C           19.2809    41.9722   -22.6863 C       2      m2    -0.1268
   2060 C           19.4407    43.2258   -23.1358 C       2      m2    -0.1268
   2061 C           20.5310    43.5676   -23.8413 C       2      m2     0.0000
   2062 C           21.4478    42.6127   -24.0689 C       2      m2    -0.1268
   2063 C           21.2767    41.3615   -23.6135 C       2      m2    -0.1268
   2064 C           20.7263    44.9796   -24.3453 C       2      m2    -0.1060
   2065 C           21.4408    45.7974   -23.2932 C       2      m2     0.0000
   2066 C           20.7583    46.4851   -22.3635 C       2      m2    -0.1268
   2067 C           21.4032    47.2007   -21.4302 C       2      m2    -0.1268
   2068 C           22.7472    47.2708   -21.3676 C       2      m2     0.0265
   2069 C           23.4162    46.5714   -22.3064 C       2      m2    -0.1268
   2070 C           22.7819    45.8516   -23.2456 C       2      m2    -0.1268
   2071 O           23.3214    48.0289   -20.3754 O       2      m2    -0.1595
   2072 C           24.7296    48.1131   -20.2992 C       2      m2     0.0270
   2073 C           25.1170    48.9730   -19.1007 C       2      m2     0.0800
   2074 C           25.5241    50.2946   -19.3048 C       2      m2     0.0270
   2075 O           26.6329    49.2381   -19.1456 O       2      m2    -0.2660
   2076 H           20.3842    36.2470   -20.1554 H       2      m2     0.0530
   2077 H           21.6572    37.6101   -20.1982 H       2      m2     0.0530
   2078 H           19.4735    37.0010   -22.3569 H       2      m2     0.0530
   2079 H           21.8619    39.0535   -22.1174 H       2      m2     0.0530
   2080 H           21.0538    38.5454   -23.6752 H       2      m2     0.0530
   2081 H           18.3721    41.7297   -22.1086 H       2      m2     0.1268
   2082 H           18.6672    43.9810   -22.9186 H       2      m2     0.1268
   2083 H           22.3602    42.8589   -24.6375 H       2      m2     0.1268
   2084 H           22.0741    40.6363   -23.8405 H       2      m2     0.1268
   2085 H           21.3038    44.9797   -25.2980 H       2      m2     0.0530
   2086 H           19.7451    45.4412   -24.6011 H       2      m2     0.0530
   2087 H           19.6559    46.4627   -22.3615 H       2      m2     0.1268
   2088 H           20.8079    47.7530   -20.6826 H       2      m2     0.1268
   2089 H           24.5173    46.5650   -22.3343 H       2      m2     0.1268
   2090 H           23.3756    45.2936   -23.9891 H       2      m2     0.1268
   2091 H           25.1538    47.0939   -20.1434 H       2      m2     0.0530
   2092 H           25.1171    48.5480   -21.2489 H       2      m2     0.0530
   2093 H           24.8152    48.6290   -18.1062 H       2      m2     0.0530
   2094 H           25.5845    50.9800   -18.4602 H       2      m2     0.0530
   2095 H           25.5953    50.7142   -20.3068 H       2      m2     0.0530
   2096 O           25.5947   -40.4515    27.7039 O       2      m2    -0.2660
   2097 C           24.0642   -40.3044    27.7894 C       2      m2     0.0270
   2098 C           24.5769   -41.6048    27.7704 C       2      m2     0.0800
   2099 C           24.6173   -42.3767    26.4557 C       2      m2     0.0270
   2100 O           23.5555   -43.3085    26.4307 O       2      m2    -0.1595
   2101 C           23.4070   -44.1270    25.3368 C       2      m2     0.0265
   2102 C           22.3592   -44.9733    25.3016 C       2      m2    -0.1268
   2103 C           22.1341   -45.8042    24.2730 C       2      m2    -0.1268
   2104 C           22.9613   -45.8260    23.2153 C       2      m2     0.0000
   2105 C           24.0081   -44.9844    23.2283 C       2      m2    -0.1268
   2106 C           24.2226   -44.1571    24.2636 C       2      m2    -0.1268
   2107 C           22.7127   -46.7518    22.0461 C       2      m2    -0.1060
   2108 C           21.8224   -46.0630    21.0366 C       2      m2     0.0000
   2109 C           20.4857   -46.1766    21.0950 C       2      m2    -0.1268
   2110 C           19.7056   -45.5545    20.1986 C       2      m2    -0.1268
   2111 C           20.2041   -44.7915    19.2063 C       2      m2     0.0265
   2112 C           21.5477   -44.6857    19.1650 C       2      m2    -0.1268
   2113 C           22.3388   -45.3036    20.0565 C       2      m2    -0.1268
   2114 O           19.3280   -44.1915    18.3338 O       2      m2    -0.1595
   2115 C           19.8369   -43.3904    17.2872 C       2      m2     0.0270
   2116 C           18.6745   -42.8101    16.4884 C       2      m2     0.0800
   2117 C           18.3384   -43.3739    15.2542 C       2      m2     0.0270
   2118 O           19.2296   -42.1184    15.2299 O       2      m2    -0.2660
   2119 H           23.8211   -39.8312    28.7400 H       2      m2     0.0530
   2120 H           23.7173   -39.8218    26.8773 H       2      m2     0.0530
   2121 H           24.6965   -42.1714    28.6994 H       2      m2     0.0530
   2122 H           24.5165   -41.6913    25.5831 H       2      m2     0.0530
   2123 H           25.5891   -42.9206    26.4054 H       2      m2     0.0530
   2124 H           21.6563   -44.9830    26.1525 H       2      m2     0.1268
   2125 H           21.2576   -46.4725    24.2993 H       2      m2     0.1268
   2126 H           24.7040   -44.9684    22.3727 H       2      m2     0.1268
   2127 H           25.1018   -43.4967    24.1984 H       2      m2     0.1268
   2128 H           23.6753   -47.0551    21.5743 H       2      m2     0.0530
   2129 H           22.2481   -47.7028    22.3941 H       2      m2     0.0530
   2130 H           20.0193   -46.7847    21.8878 H       2      m2     0.1268
   2131 H           18.6110   -45.6716    20.2788 H       2      m2     0.1268
   2132 H           22.0474   -44.0811    18.3918 H       2      m2     0.1268
   2133 H           23.4325   -45.1819    19.9817 H       2      m2     0.1268
   2134 H           20.4161   -42.5412    17.7187 H       2      m2     0.0530
   2135 H           20.4965   -44.0153    16.6424 H       2      m2     0.0530
   2136 H           17.9728   -42.1528    17.0116 H       2      m2     0.0530
   2137 H           17.3874   -43.1243    14.7850 H       2      m2     0.0530
   2138 H           18.9081   -44.2037    14.8395 H       2      m2     0.0530
   2139 O           37.7854   -40.4743    19.3549 O       2      m2    -0.2660
   2140 C           38.3680   -39.7853    20.6027 C       2      m2     0.0270
   2141 C           39.2180   -39.9297    19.5022 C       2      m2     0.0800
   2142 C           40.1981   -41.0972    19.4587 C       2      m2     0.0270
   2143 O           41.4906   -40.6320    19.7890 O       2      m2    -0.1595
   2144 C           42.5404   -41.5188    19.7993 C       2      m2     0.0265
   2145 C           43.7575   -41.0738    20.1683 C       2      m2    -0.1268
   2146 C           44.8366   -41.8692    20.2113 C       2      m2    -0.1268
   2147 C           44.7449   -43.1678    19.8816 C       2      m2     0.0000
   2148 C           43.5383   -43.6323    19.5178 C       2      m2    -0.1268
   2149 C           42.4655   -42.8263    19.4789 C       2      m2    -0.1268
   2150 C           45.9526   -44.0760    19.9350 C       2      m2    -0.1060
   2151 C           46.0707   -44.6787    21.3166 C       2      m2     0.0000
   2152 C           46.7866   -44.0767    22.2801 C       2      m2    -0.1268
   2153 C           46.8778   -44.6168    23.5044 C       2      m2    -0.1268
   2154 C           46.2681   -45.7712    23.8372 C       2      m2     0.0265
   2155 C           45.5508   -46.3600    22.8588 C       2      m2    -0.1268
   2156 C           45.4522   -45.8291    21.6297 C       2      m2    -0.1268
   2157 O           46.4170   -46.2493    25.1170 O       2      m2    -0.1595
   2158 C           45.7849   -47.4599    25.4792 C       2      m2     0.0270
   2159 C           46.0670   -47.7534    26.9489 C       2      m2     0.0800
   2160 C           47.0305   -48.7080    27.2874 C       2      m2     0.0270
   2161 O           45.5614   -49.1691    27.2812 O       2      m2    -0.2660
   2162 H           37.8323   -38.8490    20.7549 H       2      m2     0.0530
   2163 H           38.3740   -40.5066    21.4181 H       2      m2     0.0530
   2164 H           39.3860   -39.0956    18.8133 H       2      m2     0.0530
   2165 H           39.9065   -41.8949    20.1800 H       2      m2     0.0530
   2166 H           40.2043   -41.5032    18.4205 H       2      m2     0.0530
   2167 H           43.8718   -40.0122    20.4480 H       2      m2     0.1268
   2168 H           45.8065   -41.4485    20.5243 H       2      m2     0.1268
   2169 H           43.4233   -44.6957    19.2483 H       2      m2     0.1268
   2170 H           41.5114   -43.2830    19.1715 H       2      m2     0.1268
   2171 H           45.8748   -44.8776    19.1652 H       2      m2     0.0530
   2172 H           46.8766   -43.5114    19.6733 H       2      m2     0.0530
   2173 H           47.3050   -43.1269    22.0682 H       2      m2     0.1268
   2174 H           47.4756   -44.0928    24.2702 H       2      m2     0.1268
   2175 H           45.0142   -47.3052    23.0367 H       2      m2     0.1268
   2176 H           44.8495   -46.3481    20.8654 H       2      m2     0.1268
   2177 H           44.6821   -47.3537    25.3547 H       2      m2     0.0530
   2178 H           46.1673   -48.2765    24.8248 H       2      m2     0.0530
   2179 H           45.7102   -47.0326    27.6915 H       2      m2     0.0530
   2180 H           47.4003   -48.7660    28.3105 H       2      m2     0.0530
   2181 H           47.5654   -49.2656    26.5206 H       2      m2     0.0530
   2182 O           39.4610   -45.6811   -27.8838 O       2      m2    -0.2660
   2183 C           40.5570   -46.7400   -27.6633 C       2      m2     0.0270
   2184 C           39.7018   -46.4784   -26.5889 C       2      m2     0.0800
   2185 C           40.1472   -45.5173   -25.4917 C       2      m2     0.0270
   2186 O           40.5584   -46.2595   -24.3621 O       2      m2    -0.1595
   2187 C           40.9907   -45.5915   -23.2416 C       2      m2     0.0265
   2188 C           41.4310   -46.3110   -22.1910 C       2      m2    -0.1268
   2189 C           41.8747   -45.7431   -21.0597 C       2      m2    -0.1268
   2190 C           41.8983   -44.4070   -20.9266 C       2      m2     0.0000
   2191 C           41.4700   -43.6718   -21.9659 C       2      m2    -0.1268
   2192 C           41.0285   -44.2518   -23.0932 C       2      m2    -0.1268
   2193 C           42.4046   -43.7555   -19.6596 C       2      m2    -0.1060
   2194 C           43.8966   -43.5345   -19.7666 C       2      m2     0.0000
   2195 C           44.7701   -44.4637   -19.3464 C       2      m2    -0.1268
   2196 C           46.0914   -44.2599   -19.4536 C       2      m2    -0.1268
   2197 C           46.6132   -43.1349   -19.9803 C       2      m2     0.0265
   2198 C           45.7218   -42.2145   -20.4002 C       2      m2    -0.1268
   2199 C           44.3970   -42.4071   -20.2981 C       2      m2    -0.1268
   2200 O           47.9804   -43.0135   -20.0505 O       2      m2    -0.1595
   2201 C           48.5413   -41.8382   -20.5985 C       2      m2     0.0270
   2202 C           50.0614   -41.9615   -20.6013 C       2      m2     0.0800
   2203 C           50.8078   -41.2938   -19.6261 C       2      m2     0.0270
   2204 O           50.6716   -40.6043   -20.9962 O       2      m2    -0.2660
   2205 H           40.3545   -47.5813   -28.3252 H       2      m2     0.0530
   2206 H           41.5254   -46.2495   -27.7455 H       2      m2     0.0530
   2207 H           38.8529   -47.1366   -26.3779 H       2      m2     0.0530
   2208 H           40.9954   -44.8810   -25.8337 H       2      m2     0.0530
   2209 H           39.2752   -44.8788   -25.2184 H       2      m2     0.0530
   2210 H           41.4282   -47.4123   -22.2637 H       2      m2     0.1268
   2211 H           42.2255   -46.3842   -20.2342 H       2      m2     0.1268
   2212 H           41.4829   -42.5712   -21.8957 H       2      m2     0.1268
   2213 H           40.6954   -43.5804   -23.9003 H       2      m2     0.1268
   2214 H           41.8794   -42.7899   -19.4781 H       2      m2     0.0530
   2215 H           42.1644   -44.3871   -18.7738 H       2      m2     0.0530
   2216 H           44.4023   -45.4071   -18.9100 H       2      m2     0.1268
   2217 H           46.7784   -45.0468   -19.0971 H       2      m2     0.1268
   2218 H           46.0530   -41.2641   -20.8477 H       2      m2     0.1268
   2219 H           43.7093   -41.6245   -20.6603 H       2      m2     0.1268
   2220 H           48.2031   -41.7238   -21.6546 H       2      m2     0.0530
   2221 H           48.2094   -40.9637   -19.9932 H       2      m2     0.0530
   2222 H           50.5073   -42.7702   -21.1892 H       2      m2     0.0530
   2223 H           51.8564   -41.5485   -19.4769 H       2      m2     0.0530
   2224 H           50.3257   -40.6652   -18.8794 H       2      m2     0.0530
   2225 O          -23.5987    36.6992    -1.4801 O       2      m2    -0.2660
   2226 C          -23.3474    36.9559     0.0173 C       2      m2     0.0270
   2227 C          -24.3646    37.6966    -0.5917 C       2      m2     0.0800
   2228 C          -24.0749    39.1136    -1.0754 C       2      m2     0.0270
   2229 O          -24.6107    40.0389    -0.1519 O       2      m2    -0.1595
   2230 C          -24.4765    41.3846    -0.3961 C       2      m2     0.0265
   2231 C          -24.9440    42.2563     0.5188 C       2      m2    -0.1268
   2232 C          -24.8521    43.5856     0.3652 C       2      m2    -0.1268
   2233 C          -24.2784    44.1114    -0.7292 C       2      m2     0.0000
   2234 C          -23.7995    43.2587    -1.6498 C       2      m2    -0.1268
   2235 C          -23.8972    41.9300    -1.4847 C       2      m2    -0.1268
   2236 C          -24.1611    45.6081    -0.9090 C       2      m2    -0.1060
   2237 C          -22.8698    46.0918    -0.2887 C       2      m2     0.0000
   2238 C          -22.8188    46.4885     0.9932 C       2      m2    -0.1268
   2239 C          -21.6658    46.9082     1.5349 C       2      m2    -0.1268
   2240 C          -20.5114    46.9549     0.8420 C       2      m2     0.0265
   2241 C          -20.5802    46.5496    -0.4422 C       2      m2    -0.1268
   2242 C          -21.7283    46.1276    -0.9955 C       2      m2    -0.1268
   2243 O          -19.3780    47.3987     1.4802 O       2      m2    -0.1595
   2244 C          -18.1608    47.4549     0.7651 C       2      m2     0.0270
   2245 C          -17.0535    47.9381     1.6958 C       2      m2     0.0800
   2246 C          -16.6138    49.2625     1.6127 C       2      m2     0.0270
   2247 O          -15.7837    48.2019     0.8662 O       2      m2    -0.2660
   2248 H          -23.5920    36.0457     0.5636 H       2      m2     0.0530
   2249 H          -22.3436    37.3622     0.1290 H       2      m2     0.0530
   2250 H          -25.4122    37.3959    -0.4892 H       2      m2     0.0530
   2251 H          -22.9789    39.2909    -1.1692 H       2      m2     0.0530
   2252 H          -24.5707    39.2479    -2.0648 H       2      m2     0.0530
   2253 H          -25.4208    41.8615     1.4326 H       2      m2     0.1268
   2254 H          -25.2506    44.2495     1.1500 H       2      m2     0.1268
   2255 H          -23.3141    43.6544    -2.5577 H       2      m2     0.1268
   2256 H          -23.4793    41.2975    -2.2838 H       2      m2     0.1268
   2257 H          -24.1997    45.8776    -1.9893 H       2      m2     0.0530
   2258 H          -25.0345    46.1254    -0.4498 H       2      m2     0.0530
   2259 H          -23.7312    46.4687     1.6120 H       2      m2     0.1268
   2260 H          -21.6633    47.2266     2.5918 H       2      m2     0.1268
   2261 H          -19.6877    46.5491    -1.0875 H       2      m2     0.1268
   2262 H          -21.7309    45.8025    -2.0496 H       2      m2     0.1268
   2263 H          -17.8915    46.4326     0.4111 H       2      m2     0.0530
   2264 H          -18.2842    48.1409    -0.1041 H       2      m2     0.0530
   2265 H          -16.8204    47.3264     2.5733 H       2      m2     0.0530
   2266 H          -15.9961    49.6796     2.4072 H       2      m2     0.0530
   2267 H          -17.0290    49.9493     0.8772 H       2      m2     0.0530
   2268 O           -3.4898    40.8220    16.0192 O       2      m2    -0.2660
   2269 C           -3.6569    42.3524    16.0546 C       2      m2     0.0270
   2270 C           -2.3499    41.8568    16.0369 C       2      m2     0.0800
   2271 C           -1.5801    41.7225    17.3465 C       2      m2     0.0270
   2272 O           -0.6624    42.7910    17.4581 O       2      m2    -0.1595
   2273 C            0.1520    42.8632    18.5628 C       2      m2     0.0265
   2274 C            0.9843    43.9158    18.6833 C       2      m2    -0.1268
   2275 C            1.8102    44.0696    19.7289 C       2      m2    -0.1268
   2276 C            1.8408    43.1616    20.7179 C       2      m2     0.0000
   2277 C            1.0131    42.1084    20.6197 C       2      m2    -0.1268
   2278 C            0.1907    41.9656    19.5682 C       2      m2    -0.1268
   2279 C            2.7610    43.3290    21.9058 C       2      m2    -0.1060
   2280 C            2.0586    44.1276    22.9805 C       2      m2     0.0000
   2281 C            2.1546    45.4662    23.0283 C       2      m2    -0.1268
   2282 C            1.5206    46.1647    23.9818 C       2      m2    -0.1268
   2283 C            0.7624    45.5794    24.9293 C       2      m2     0.0265
   2284 C            0.6742    44.2355    24.8639 C       2      m2    -0.1268
   2285 C            1.3043    43.5255    23.9145 C       2      m2    -0.1268
   2286 O            0.1492    46.3758    25.8666 O       2      m2    -0.1595
   2287 C           -0.6472    45.7754    26.8673 C       2      m2     0.0270
   2288 C           -1.2442    46.8633    27.7538 C       2      m2     0.0800
   2289 C           -0.6873    47.1080    29.0124 C       2      m2     0.0270
   2290 O           -1.9309    46.2014    28.9623 O       2      m2    -0.2660
   2291 H           -4.1315    42.6638    15.1248 H       2      m2     0.0530
   2292 H           -4.1459    42.6197    16.9899 H       2      m2     0.0530
   2293 H           -1.7800    41.8184    15.1029 H       2      m2     0.0530
   2294 H           -2.2684    41.7451    18.2223 H       2      m2     0.0530
   2295 H           -1.0235    40.7569    17.3214 H       2      m2     0.0530
   2296 H            0.9864    44.6839    17.8906 H       2      m2     0.1268
   2297 H            2.4669    44.9541    19.7739 H       2      m2     0.1268
   2298 H            1.0047    41.3468    21.4175 H       2      m2     0.1268
   2299 H           -0.4581    41.0756    19.5617 H       2      m2     0.1268
   2300 H            3.0761    42.3361    22.3009 H       2      m2     0.0530
   2301 H            3.7065    43.8320    21.5985 H       2      m2     0.0530
   2302 H            2.7581    46.0017    22.2768 H       2      m2     0.1268
   2303 H            1.6234    47.2637    23.9887 H       2      m2     0.1268
   2304 H            0.0748    43.6684    25.5933 H       2      m2     0.1268
   2305 H            1.1968    42.4278    23.9022 H       2      m2     0.1268
   2306 H           -1.4878    45.2211    26.3888 H       2      m2     0.0530
   2307 H           -0.0149    45.0750    27.4598 H       2      m2     0.0530
   2308 H           -1.9098    47.5956    27.2857 H       2      m2     0.0530
   2309 H           -0.9503    48.0155    29.5546 H       2      m2     0.0530
   2310 H            0.1492    46.5181    29.3832 H       2      m2     0.0530
   2311 O           -1.0080   -22.7483    29.5148 O       2      m2    -0.2660
   2312 C            0.1124   -21.7510    29.1666 C       2      m2     0.0270
   2313 C           -1.1557   -21.4905    28.6392 C       2      m2     0.0800
   2314 C           -1.4767   -21.9170    27.2107 C       2      m2     0.0270
   2315 O           -1.4192   -20.7874    26.3640 O       2      m2    -0.1595
   2316 C           -1.6890   -20.9383    25.0249 C       2      m2     0.0265
   2317 C           -1.5780   -19.8642    24.2192 C       2      m2    -0.1268
   2318 C           -1.8176   -19.9205    22.9007 C       2      m2    -0.1268
   2319 C           -2.1853   -21.0738    22.3192 C       2      m2     0.0000
   2320 C           -2.2946   -22.1579    23.1045 C       2      m2    -0.1268
   2321 C           -2.0517   -22.0890    24.4230 C       2      m2    -0.1268
   2322 C           -2.4493   -21.1513    20.8324 C       2      m2    -0.1060
   2323 C           -1.1617   -21.4700    20.1066 C       2      m2     0.0000
   2324 C           -0.3523   -20.4944    19.6636 C       2      m2    -0.1268
   2325 C            0.7913   -20.7893    19.0279 C       2      m2    -0.1268
   2326 C            1.1915   -22.0556    18.8010 C       2      m2     0.0265
   2327 C            0.3686   -23.0221    19.2557 C       2      m2    -0.1268
   2328 C           -0.7786   -22.7395    19.8932 C       2      m2    -0.1268
   2329 O            2.3796   -22.2624    18.1418 O       2      m2    -0.1595
   2330 C            2.8105   -23.5852    17.8952 C       2      m2     0.0270
   2331 C            4.1632   -23.5496    17.1918 C       2      m2     0.0800
   2332 C            4.2287   -23.7773    15.8141 C       2      m2     0.0270
   2333 O            4.5263   -24.9745    16.7356 O       2      m2    -0.2660
   2334 H            0.4284   -21.2605    30.0866 H       2      m2     0.0530
   2335 H            0.8677   -22.2772    28.5852 H       2      m2     0.0530
   2336 H           -1.8207   -20.7640    29.1172 H       2      m2     0.0530
   2337 H           -0.7508   -22.6792    26.8452 H       2      m2     0.0530
   2338 H           -2.5098   -22.3359    27.2003 H       2      m2     0.0530
   2339 H           -1.2763   -18.8986    24.6608 H       2      m2     0.1268
   2340 H           -1.7074   -19.0081    22.2915 H       2      m2     0.1268
   2341 H           -2.5861   -23.1244    22.6602 H       2      m2     0.1268
   2342 H           -2.1618   -23.0219    24.9983 H       2      m2     0.1268
   2343 H           -3.2228   -21.9220    20.6111 H       2      m2     0.0530
   2344 H           -2.8809   -20.1930    20.4628 H       2      m2     0.0530
   2345 H           -0.6250   -19.4381    19.8237 H       2      m2     0.1268
   2346 H            1.4307   -19.9603    18.6782 H       2      m2     0.1268
   2347 H            0.6125   -24.0876    19.1200 H       2      m2     0.1268
   2348 H           -1.4151   -23.5669    20.2494 H       2      m2     0.1268
   2349 H            2.9405   -24.1194    18.8650 H       2      m2     0.0530
   2350 H            2.0461   -24.1035    17.2720 H       2      m2     0.0530
   2351 H            5.0029   -23.0891    17.7222 H       2      m2     0.0530
   2352 H            5.1393   -23.5352    15.2672 H       2      m2     0.0530
   2353 H            3.3342   -24.0058    15.2373 H       2      m2     0.0530
   2354 O          -20.8795   -50.3900     3.9951 O       2      m2    -0.2660
   2355 C          -21.3133   -49.2085     4.8822 C       2      m2     0.0270
   2356 C          -22.1680   -49.5628     3.8343 C       2      m2     0.0800
   2357 C          -22.1016   -48.7942     2.5188 C       2      m2     0.0270
   2358 O          -23.1821   -47.8861     2.4556 O       2      m2    -0.1595
   2359 C          -23.3274   -47.0926     1.3430 C       2      m2     0.0265
   2360 C          -24.3301   -46.1930     1.3183 C       2      m2    -0.1268
   2361 C          -24.5438   -45.3756     0.2766 C       2      m2    -0.1268
   2362 C          -23.7502   -45.4223    -0.8057 C       2      m2     0.0000
   2363 C          -22.7403   -46.3078    -0.7975 C       2      m2    -0.1268
   2364 C          -22.5364   -47.1205     0.2514 C       2      m2    -0.1268
   2365 C          -23.9758   -44.4996    -1.9821 C       2      m2    -0.1060
   2366 C          -23.2110   -43.2129    -1.7690 C       2      m2     0.0000
   2367 C          -23.7742   -42.1623    -1.1509 C       2      m2    -0.1268
   2368 C          -23.0833   -41.0285    -0.9604 C       2      m2    -0.1268
   2369 C          -21.8077   -40.8774    -1.3670 C       2      m2     0.0265
   2370 C          -21.2571   -41.9433    -1.9824 C       2      m2    -0.1268
   2371 C          -21.9385   -43.0832    -2.1788 C       2      m2    -0.1268
   2372 O          -21.1782   -39.6792    -1.1282 O       2      m2    -0.1595
   2373 C          -19.8413   -39.5060    -1.5510 C       2      m2     0.0270
   2374 C          -19.3599   -38.1190    -1.1384 C       2      m2     0.0800
   2375 C          -19.2936   -37.1010    -2.0942 C       2      m2     0.0270
   2376 O          -17.9872   -37.8546    -1.7834 O       2      m2    -0.2660
   2377 H          -21.4999   -49.5881     5.8861 H       2      m2     0.0530
   2378 H          -20.5817   -48.4104     4.7677 H       2      m2     0.0530
   2379 H          -23.0504   -50.1838     4.0192 H       2      m2     0.0530
   2380 H          -21.1471   -48.2259     2.4321 H       2      m2     0.0530
   2381 H          -22.1864   -49.5299     1.6854 H       2      m2     0.0530
   2382 H          -25.0026   -46.1242     2.1908 H       2      m2     0.1268
   2383 H          -25.3794   -44.6573     0.3152 H       2      m2     0.1268
   2384 H          -22.0628   -46.3685    -1.6657 H       2      m2     0.1268
   2385 H          -21.6866   -47.8179     0.1823 H       2      m2     0.1268
   2386 H          -23.6585   -44.9893    -2.9312 H       2      m2     0.0530
   2387 H          -25.0628   -44.2927    -2.1121 H       2      m2     0.0530
   2388 H          -24.8147   -42.2279    -0.7921 H       2      m2     0.1268
   2389 H          -23.5801   -40.1863    -0.4484 H       2      m2     0.1268
   2390 H          -20.2182   -41.9159    -2.3472 H       2      m2     0.1268
   2391 H          -21.4411   -43.9281    -2.6842 H       2      m2     0.1268
   2392 H          -19.1927   -40.2597    -1.0469 H       2      m2     0.0530
   2393 H          -19.7925   -39.6370    -2.6563 H       2      m2     0.0530
   2394 H          -19.3353   -37.8837    -0.0696 H       2      m2     0.0530
   2395 H          -19.1724   -36.0661    -1.7766 H       2      m2     0.0530
   2396 H          -19.5544   -37.2868    -3.1347 H       2      m2     0.0530
   2397 O           -4.7372   -49.7937   -42.5718 O       2      m2    -0.2660
   2398 C           -5.4313   -48.6320   -43.3065 C       2      m2     0.0270
   2399 C           -4.3159   -49.2003   -43.9286 C       2      m2     0.0800
   2400 C           -2.9515   -48.5362   -43.7758 C       2      m2     0.0270
   2401 O           -2.6472   -47.8220   -44.9562 O       2      m2    -0.1595
   2402 C           -1.4507   -47.1517   -45.0451 C       2      m2     0.0265
   2403 C           -1.1960   -46.4303   -46.1541 C       2      m2    -0.1268
   2404 C           -0.0574   -45.7419   -46.3242 C       2      m2    -0.1268
   2405 C            0.8936   -45.7445   -45.3761 C       2      m2     0.0000
   2406 C            0.6554   -46.4521   -44.2596 C       2      m2    -0.1268
   2407 C           -0.4883   -47.1368   -44.1008 C       2      m2    -0.1268
   2408 C            2.1771   -44.9651   -45.5528 C       2      m2    -0.1060
   2409 C            1.9908   -43.5591   -45.0286 C       2      m2     0.0000
   2410 C            1.5664   -42.5680   -45.8291 C       2      m2    -0.1268
   2411 C            1.3972   -41.3263   -45.3509 C       2      m2    -0.1268
   2412 C            1.6354   -41.0037   -44.0647 C       2      m2     0.0265
   2413 C            2.0573   -42.0117   -43.2747 C       2      m2    -0.1268
   2414 C            2.2304   -43.2584   -43.7417 C       2      m2    -0.1268
   2415 O            1.4336   -39.7048   -43.6636 O       2      m2    -0.1595
   2416 C            1.6815   -39.3518   -42.3182 C       2      m2     0.0270
   2417 C            1.3482   -37.8774   -42.1164 C       2      m2     0.0800
   2418 C            2.3834   -36.9399   -42.0558 C       2      m2     0.0270
   2419 O            1.8193   -37.4463   -40.7155 O       2      m2    -0.2660
   2420 H           -6.4327   -48.9571   -43.5864 H       2      m2     0.0530
   2421 H           -5.3398   -47.7378   -42.6922 H       2      m2     0.0530
   2422 H           -4.4379   -49.9391   -44.7271 H       2      m2     0.0530
   2423 H           -2.9416   -47.8300   -42.9140 H       2      m2     0.0530
   2424 H           -2.1932   -49.3387   -43.6221 H       2      m2     0.0530
   2425 H           -1.9549   -46.4028   -46.9551 H       2      m2     0.1268
   2426 H            0.0935   -45.1670   -47.2528 H       2      m2     0.1268
   2427 H            1.4103   -46.4704   -43.4556 H       2      m2     0.1268
   2428 H           -0.6090   -47.6913   -43.1567 H       2      m2     0.1268
   2429 H            3.0184   -45.4698   -45.0248 H       2      m2     0.0530
   2430 H            2.4774   -44.9469   -46.6256 H       2      m2     0.0530
   2431 H            1.3511   -42.7724   -46.8910 H       2      m2     0.1268
   2432 H            1.0471   -40.5379   -46.0395 H       2      m2     0.1268
   2433 H            2.2748   -41.8457   -42.2078 H       2      m2     0.1268
   2434 H            2.5737   -44.0489   -43.0532 H       2      m2     0.1268
   2435 H            1.0184   -39.9494   -41.6502 H       2      m2     0.0530
   2436 H            2.7503   -39.5592   -42.0818 H       2      m2     0.0530
   2437 H            0.3156   -37.5584   -42.2909 H       2      m2     0.0530
   2438 H            2.1583   -35.8773   -42.1391 H       2      m2     0.0530
   2439 H            3.4259   -37.2460   -42.1236 H       2      m2     0.0530
   2440 O            5.6997    25.5282    25.6212 O       2      m2    -0.2660
   2441 C            5.4117    24.1294    26.1970 C       2      m2     0.0270
   2442 C            5.7247    24.2038    24.8366 C       2      m2     0.0800
   2443 C            4.5996    24.2173    23.8071 C       2      m2     0.0270
   2444 O            4.4902    22.9365    23.2209 O       2      m2    -0.1595
   2445 C            3.5421    22.7221    22.2494 C       2      m2     0.0265
   2446 C            3.4118    21.4829    21.7371 C       2      m2    -0.1268
   2447 C            2.5112    21.1823    20.7897 C       2      m2    -0.1268
   2448 C            1.6863    22.1242    20.3041 C       2      m2     0.0000
   2449 C            1.7958    23.3647    20.8073 C       2      m2    -0.1268
   2450 C            2.7010    23.6532    21.7557 C       2      m2    -0.1268
   2451 C            0.6611    21.7951    19.2426 C       2      m2    -0.1060
   2452 C           -0.6232    21.3463    19.9024 C       2      m2     0.0000
   2453 C           -0.8503    20.0513    20.1753 C       2      m2    -0.1268
   2454 C           -1.9900    19.6659    20.7681 C       2      m2    -0.1268
   2455 C           -2.9564    20.5359    21.1210 C       2      m2     0.0265
   2456 C           -2.7101    21.8321    20.8427 C       2      m2    -0.1268
   2457 C           -1.5732    22.2300    20.2497 C       2      m2    -0.1268
   2458 O           -4.0913    20.0499    21.7248 O       2      m2    -0.1595
   2459 C           -5.1138    20.9506    22.0982 C       2      m2     0.0270
   2460 C           -6.2393    20.1784    22.7785 C       2      m2     0.0800
   2461 C           -7.4066    19.8920    22.0648 C       2      m2     0.0270
   2462 O           -7.4365    21.1232    22.9891 O       2      m2    -0.2660
   2463 H            6.1909    23.8929    26.9206 H       2      m2     0.0530
   2464 H            4.3778    24.1078    26.5373 H       2      m2     0.0530
   2465 H            6.7374    23.9837    24.4838 H       2      m2     0.0530
   2466 H            3.6256    24.4829    24.2785 H       2      m2     0.0530
   2467 H            4.8610    24.9636    23.0212 H       2      m2     0.0530
   2468 H            4.0714    20.6815    22.1125 H       2      m2     0.1268
   2469 H            2.4492    20.1487    20.4107 H       2      m2     0.1268
   2470 H            1.1290    24.1622    20.4385 H       2      m2     0.1268
   2471 H            2.7277    24.6932    22.1176 H       2      m2     0.1268
   2472 H            0.4759    22.6782    18.5890 H       2      m2     0.0530
   2473 H            1.0478    21.0047    18.5592 H       2      m2     0.0530
   2474 H           -0.0939    19.2930    19.9135 H       2      m2     0.1268
   2475 H           -2.1409    18.5925    20.9764 H       2      m2     0.1268
   2476 H           -3.4396    22.6172    21.0966 H       2      m2     0.1268
   2477 H           -1.4181    23.3031    20.0472 H       2      m2     0.1268
   2478 H           -4.7093    21.6871    22.8310 H       2      m2     0.0530
   2479 H           -5.4802    21.4781    21.1878 H       2      m2     0.0530
   2480 H           -6.0044    19.6419    23.7034 H       2      m2     0.0530
   2481 H           -8.1132    19.1591    22.4526 H       2      m2     0.0530
   2482 H           -7.5385    20.2330    21.0395 H       2      m2     0.0530
   2483 O           43.8590   -39.2697     5.9710 O       2      m2    -0.2660
   2484 C           42.4513   -39.5719     5.4248 C       2      m2     0.0270
   2485 C           43.2244   -40.6651     5.8268 C       2      m2     0.0800
   2486 C           44.0040   -41.4576     4.7828 C       2      m2     0.0270
   2487 O           43.3156   -42.6589     4.5014 O       2      m2    -0.1595
   2488 C           43.8484   -43.5398     3.5910 C       2      m2     0.0265
   2489 C           43.1556   -44.6559     3.2914 C       2      m2    -0.1268
   2490 C           43.5970   -45.5677     2.4123 C       2      m2    -0.1268
   2491 C           44.7713   -45.4009     1.7826 C       2      m2     0.0000
   2492 C           45.4737   -44.2908     2.0624 C       2      m2    -0.1268
   2493 C           45.0212   -43.3852     2.9441 C       2      m2    -0.1268
   2494 C           45.2748   -46.4175     0.7830 C       2      m2    -0.1060
   2495 C           44.7563   -46.0713    -0.5945 C       2      m2     0.0000
   2496 C           43.5927   -46.5672    -1.0455 C       2      m2    -0.1268
   2497 C           43.1389   -46.2468    -2.2663 C       2      m2    -0.1268
   2498 C           43.8070   -45.4232    -3.0974 C       2      m2     0.0265
   2499 C           44.9712   -44.9318    -2.6269 C       2      m2    -0.1268
   2500 C           45.4357   -45.2453    -1.4069 C       2      m2    -0.1268
   2501 O           43.2647   -45.1507    -4.3304 O       2      m2    -0.1595
   2502 C           43.9556   -44.2904    -5.2130 C       2      m2     0.0270
   2503 C           43.1370   -44.1166    -6.4880 C       2      m2     0.0800
   2504 C           43.5032   -44.8162    -7.6415 C       2      m2     0.0270
   2505 O           43.9845   -43.3582    -7.5257 O       2      m2    -0.2660
   2506 H           41.7216   -39.1424     6.1103 H       2      m2     0.0530
   2507 H           42.4162   -39.2589     4.3827 H       2      m2     0.0530
   2508 H           43.0745   -41.1238     6.8094 H       2      m2     0.0530
   2509 H           44.1174   -40.8770     3.8385 H       2      m2     0.0530
   2510 H           45.0063   -41.6957     5.2089 H       2      m2     0.0530
   2511 H           42.1848   -44.8271     3.7880 H       2      m2     0.1268
   2512 H           42.9842   -46.4607     2.2056 H       2      m2     0.1268
   2513 H           46.4388   -44.1160     1.5579 H       2      m2     0.1268
   2514 H           45.6547   -42.5010     3.1181 H       2      m2     0.1268
   2515 H           46.3884   -46.4501     0.7837 H       2      m2     0.0530
   2516 H           44.9546   -47.4436     1.0759 H       2      m2     0.0530
   2517 H           42.9992   -47.2437    -0.4085 H       2      m2     0.1268
   2518 H           42.1784   -46.6743    -2.6023 H       2      m2     0.1268
   2519 H           45.5864   -44.2479    -3.2325 H       2      m2     0.1268
   2520 H           46.3921   -44.8134    -1.0671 H       2      m2     0.1268
   2521 H           44.0712   -43.2881    -4.7386 H       2      m2     0.0530
   2522 H           44.9564   -44.7275    -5.4333 H       2      m2     0.0530
   2523 H           42.1428   -43.6671    -6.3996 H       2      m2     0.0530
   2524 H           42.8106   -44.8796    -8.4800 H       2      m2     0.0530
   2525 H           44.3784   -45.4635    -7.6543 H       2      m2     0.0530
   2526 O           45.5361    29.3822   -20.9082 O       2      m2    -0.2660
   2527 C           46.3184    28.7861   -22.0931 C       2      m2     0.0270
   2528 C           44.9244    28.6933   -22.1419 C       2      m2     0.0800
   2529 C           44.2421    27.4028   -21.7003 C       2      m2     0.0270
   2530 O           43.8518    26.6687   -22.8427 O       2      m2    -0.1595
   2531 C           43.2023    25.4687   -22.6793 C       2      m2     0.0265
   2532 C           42.8837    24.7529   -23.7754 C       2      m2    -0.1268
   2533 C           42.2538    23.5705   -23.7099 C       2      m2    -0.1268
   2534 C           41.9086    23.0422   -22.5245 C       2      m2     0.0000
   2535 C           42.2240    23.7374   -21.4194 C       2      m2    -0.1268
   2536 C           42.8548    24.9197   -21.4978 C       2      m2    -0.1268
   2537 C           41.2064    21.7059   -22.4379 C       2      m2    -0.1060
   2538 C           42.2338    20.5990   -22.3653 C       2      m2     0.0000
   2539 C           42.6986    20.0063   -23.4769 C       2      m2    -0.1268
   2540 C           43.6159    19.0308   -23.4006 C       2      m2    -0.1268
   2541 C           44.1188    18.5956   -22.2289 C       2      m2     0.0265
   2542 C           43.6436    19.2042   -21.1234 C       2      m2    -0.1268
   2543 C           42.7255    20.1816   -21.1871 C       2      m2    -0.1268
   2544 O           45.0564    17.5909   -22.2475 O       2      m2    -0.1595
   2545 C           45.5908    17.1233   -21.0260 C       2      m2     0.0270
   2546 C           46.6305    16.0451   -21.3129 C       2      m2     0.0800
   2547 C           46.2947    14.7001   -21.1332 C       2      m2     0.0270
   2548 O           47.0515    15.3914   -19.9841 O       2      m2    -0.2660
   2549 H           46.8261    29.6004   -22.6089 H       2      m2     0.0530
   2550 H           46.9256    27.9630   -21.7202 H       2      m2     0.0530
   2551 H           44.3376    29.4061   -22.7301 H       2      m2     0.0530
   2552 H           44.9270    26.7754   -21.0849 H       2      m2     0.0530
   2553 H           43.3378    27.6764   -21.1087 H       2      m2     0.0530
   2554 H           43.1527    25.1542   -24.7678 H       2      m2     0.1268
   2555 H           42.0217    23.0289   -24.6418 H       2      m2     0.1268
   2556 H           41.9637    23.3304   -20.4279 H       2      m2     0.1268
   2557 H           43.0795    25.4275   -20.5465 H       2      m2     0.1268
   2558 H           40.5342    21.6729   -21.5500 H       2      m2     0.0530
   2559 H           40.5352    21.5609   -23.3152 H       2      m2     0.0530
   2560 H           42.3272    20.3230   -24.4656 H       2      m2     0.1268
   2561 H           43.9739    18.5673   -24.3362 H       2      m2     0.1268
   2562 H           43.9973    18.9188   -20.1202 H       2      m2     0.1268
   2563 H           42.3720    20.6504   -20.2534 H       2      m2     0.1268
   2564 H           46.1015    17.9628   -20.4995 H       2      m2     0.0530
   2565 H           44.7610    16.7256   -20.3978 H       2      m2     0.0530
   2566 H           47.5106    16.3273   -21.8995 H       2      m2     0.0530
   2567 H           46.9370    13.9214   -21.5428 H       2      m2     0.0530
   2568 H           45.3120    14.4085   -20.7665 H       2      m2     0.0530
   2569 O           47.9252   -25.6497    49.4148 O       2      m2    -0.2660
   2570 C           48.7568   -24.5560    48.7196 C       2      m2     0.0270
   2571 C           47.5612   -24.1565    49.3237 C       2      m2     0.0800
   2572 C           46.3045   -24.0046    48.4732 C       2      m2     0.0270
   2573 O           46.0766   -22.6333    48.2209 O       2      m2    -0.1595
   2574 C           44.9819   -22.2607    47.4782 C       2      m2     0.0265
   2575 C           44.8056   -20.9545    47.1991 C       2      m2    -0.1268
   2576 C           43.7691   -20.5018    46.4782 C       2      m2    -0.1268
   2577 C           42.8467   -21.3502    45.9957 C       2      m2     0.0000
   2578 C           43.0087   -22.6577    46.2571 C       2      m2    -0.1268
   2579 C           44.0506   -23.0987    46.9797 C       2      m2    -0.1268
   2580 C           41.6791   -20.8525    45.1742 C       2      m2    -0.1060
   2581 C           42.0677   -20.8170    43.7135 C       2      m2     0.0000
   2582 C           42.6074   -19.7175    43.1630 C       2      m2    -0.1268
   2583 C           42.9555   -19.7004    41.8677 C       2      m2    -0.1268
   2584 C           42.7907   -20.7633    41.0564 C       2      m2     0.0265
   2585 C           42.2509   -21.8595    41.6266 C       2      m2    -0.1268
   2586 C           41.8984   -21.8887    42.9218 C       2      m2    -0.1268
   2587 O           43.1773   -20.6544    39.7421 O       2      m2    -0.1595
   2588 C           43.0083   -21.7605    38.8794 C       2      m2     0.0270
   2589 C           43.5451   -21.4054    37.4968 C       2      m2     0.0800
   2590 C           42.6500   -21.0764    36.4747 C       2      m2     0.0270
   2591 O           43.1670   -22.5264    36.5115 O       2      m2    -0.2660
   2592 H           49.6980   -24.4511    49.2581 H       2      m2     0.0530
   2593 H           48.8018   -24.7869    47.6566 H       2      m2     0.0530
   2594 H           47.5639   -23.6977    50.3177 H       2      m2     0.0530
   2595 H           46.4097   -24.5379    47.5006 H       2      m2     0.0530
   2596 H           45.4464   -24.4233    49.0488 H       2      m2     0.0530
   2597 H           45.5443   -20.2268    47.5775 H       2      m2     0.1268
   2598 H           43.6793   -19.4209    46.2797 H       2      m2     0.1268
   2599 H           42.2754   -23.3848    45.8698 H       2      m2     0.1268
   2600 H           44.1136   -24.1852    47.1495 H       2      m2     0.1268
   2601 H           40.7876   -21.5035    45.3249 H       2      m2     0.0530
   2602 H           41.3619   -19.8420    45.5202 H       2      m2     0.0530
   2603 H           42.7704   -18.8174    43.7785 H       2      m2     0.1268
   2604 H           43.3962   -18.7783    41.4509 H       2      m2     0.1268
   2605 H           42.0805   -22.7786    41.0442 H       2      m2     0.1268
   2606 H           41.4643   -22.8118    43.3414 H       2      m2     0.1268
   2607 H           43.5968   -22.6250    39.2658 H       2      m2     0.0530
   2608 H           41.9263   -22.0226    38.8362 H       2      m2     0.0530
   2609 H           44.6079   -21.1578    37.4094 H       2      m2     0.0530
   2610 H           43.0172   -20.6081    35.5622 H       2      m2     0.0530
   2611 H           41.5741   -21.0945    36.6400 H       2      m2     0.0530
   2612 O           21.0761   -17.9398     6.3804 O       2      m2    -0.2660
   2613 C           21.3187   -17.0515     5.1462 C       2      m2     0.0270
   2614 C           20.2299   -17.9268     5.0942 C       2      m2     0.0800
   2615 C           20.3803   -19.2709     4.3894 C       2      m2     0.0270
   2616 O           19.7703   -19.1996     3.1170 O       2      m2    -0.1595
   2617 C           19.7752   -20.3103     2.3076 C       2      m2     0.0265
   2618 C           19.2382   -20.2135     1.0758 C       2      m2    -0.1268
   2619 C           19.2035   -21.2442     0.2182 C       2      m2    -0.1268
   2620 C           19.7133   -22.4385     0.5605 C       2      m2     0.0000
   2621 C           20.2599   -22.5533     1.7820 C       2      m2    -0.1268
   2622 C           20.2889   -21.5142     2.6315 C       2      m2    -0.1268
   2623 C           19.6880   -23.6050    -0.4011 C       2      m2    -0.1060
   2624 C           20.9350   -23.5824    -1.2559 C       2      m2     0.0000
   2625 C           20.9626   -22.9315    -2.4301 C       2      m2    -0.1268
   2626 C           22.0770   -22.9118    -3.1762 C       2      m2    -0.1268
   2627 C           23.2144   -23.5287    -2.8008 C       2      m2     0.0265
   2628 C           23.1698   -24.1741    -1.6177 C       2      m2    -0.1268
   2629 C           22.0602   -24.2010    -0.8623 C       2      m2    -0.1268
   2630 O           24.3082   -23.4543    -3.6297 O       2      m2    -0.1595
   2631 C           25.5068   -24.0984    -3.2496 C       2      m2     0.0270
   2632 C           26.5741   -23.8375    -4.3074 C       2      m2     0.0800
   2633 C           26.8869   -24.8392    -5.2310 C       2      m2     0.0270
   2634 O           27.8045   -24.7109    -4.0010 O       2      m2    -0.2660
   2635 H           21.1664   -16.0135     5.4396 H       2      m2     0.0530
   2636 H           22.2812   -17.3226     4.7157 H       2      m2     0.0530
   2637 H           19.2163   -17.5701     5.3032 H       2      m2     0.0530
   2638 H           21.4538   -19.5400     4.2604 H       2      m2     0.0530
   2639 H           19.8632   -20.0426     5.0058 H       2      m2     0.0530
   2640 H           18.8104   -19.2469     0.7580 H       2      m2     0.1268
   2641 H           18.7531   -21.1038    -0.7783 H       2      m2     0.1268
   2642 H           20.6961   -23.5169     2.0945 H       2      m2     0.1268
   2643 H           20.7554   -21.6880     3.6140 H       2      m2     0.1268
   2644 H           19.6125   -24.5686     0.1530 H       2      m2     0.0530
   2645 H           18.7750   -23.5648    -1.0385 H       2      m2     0.0530
   2646 H           20.0629   -22.4043    -2.7882 H       2      m2     0.1268
   2647 H           22.0613   -22.3663    -4.1357 H       2      m2     0.1268
   2648 H           24.0513   -24.7051    -1.2255 H       2      m2     0.1268
   2649 H           22.0766   -24.7398     0.1001 H       2      m2     0.1268
   2650 H           25.8668   -23.6717    -2.2846 H       2      m2     0.0530
   2651 H           25.3102   -25.1892    -3.1364 H       2      m2     0.0530
   2652 H           26.8731   -22.7998    -4.4864 H       2      m2     0.0530
   2653 H           27.4715   -24.5960    -6.1175 H       2      m2     0.0530
   2654 H           26.4011   -25.8127    -5.1930 H       2      m2     0.0530
   2655 O          -49.1443    -5.6050   -44.4090 O       2      m2    -0.2660
   2656 C          -47.9489    -5.8319   -45.3527 C       2      m2     0.0270
   2657 C          -47.6639    -5.6789   -43.9928 C       2      m2     0.0800
   2658 C          -47.2296    -4.3154   -43.4655 C       2      m2     0.0270
   2659 O          -45.8307    -4.3175   -43.2673 O       2      m2    -0.1595
   2660 C          -45.2204    -3.1864   -42.7806 C       2      m2     0.0265
   2661 C          -43.8797    -3.1831   -42.6471 C       2      m2    -0.1268
   2662 C          -43.2010    -2.1227   -42.1847 C       2      m2    -0.1268
   2663 C          -43.8442    -0.9987   -41.8289 C       2      m2     0.0000
   2664 C          -45.1806    -0.9797   -41.9614 C       2      m2    -0.1268
   2665 C          -45.8488    -2.0475   -42.4258 C       2      m2    -0.1268
   2666 C          -43.0889     0.2060   -41.3149 C       2      m2    -0.1060
   2667 C          -42.6878     1.0850   -42.4780 C       2      m2     0.0000
   2668 C          -41.5105     0.9197   -43.1022 C       2      m2    -0.1268
   2669 C          -41.1689     1.7004   -44.1380 C       2      m2    -0.1268
   2670 C          -41.9697     2.6767   -44.6078 C       2      m2     0.0265
   2671 C          -43.1491     2.8261   -43.9715 C       2      m2    -0.1268
   2672 C          -43.5020     2.0510   -42.9337 C       2      m2    -0.1268
   2673 O          -41.5365     3.4270   -45.6747 O       2      m2    -0.1595
   2674 C          -42.3651     4.4556   -46.1764 C       2      m2     0.0270
   2675 C          -41.6844     5.1092   -47.3744 C       2      m2     0.0800
   2676 C          -41.0522     6.3460   -47.2164 C       2      m2     0.0270
   2677 O          -42.4843     6.3599   -47.7820 O       2      m2    -0.2660
   2678 H          -48.0376    -6.8304   -45.7792 H       2      m2     0.0530
   2679 H          -47.8923    -4.9887   -46.0390 H       2      m2     0.0530
   2680 H          -47.4851    -6.5528   -43.3580 H       2      m2     0.0530
   2681 H          -47.4911    -3.5042   -44.1832 H       2      m2     0.0530
   2682 H          -47.7419    -4.1441   -42.4904 H       2      m2     0.0530
   2683 H          -43.3161    -4.0886   -42.9309 H       2      m2     0.1268
   2684 H          -42.1031    -2.1781   -42.1003 H       2      m2     0.1268
   2685 H          -45.7417    -0.0706   -41.6871 H       2      m2     0.1268
   2686 H          -46.9433    -1.9527   -42.5062 H       2      m2     0.1268
   2687 H          -43.7110     0.7788   -40.5895 H       2      m2     0.0530
   2688 H          -42.1913    -0.1141   -40.7376 H       2      m2     0.0530
   2689 H          -40.8145     0.1337   -42.7650 H       2      m2     0.1268
   2690 H          -40.1926     1.5345   -44.6256 H       2      m2     0.1268
   2691 H          -43.8716     3.5958   -44.2856 H       2      m2     0.1268
   2692 H          -44.4803     2.2111   -42.4499 H       2      m2     0.1268
   2693 H          -43.3294     4.0178   -46.5247 H       2      m2     0.0530
   2694 H          -42.5517     5.1964   -45.3655 H       2      m2     0.0530
   2695 H          -41.4761     4.4832   -48.2480 H       2      m2     0.0530
   2696 H          -40.3783     6.7131   -47.9895 H       2      m2     0.0530
   2697 H          -41.0593     6.8646   -46.2592 H       2      m2     0.0530
   2698 O          -41.8265    28.2190   -25.8273 O       2      m2    -0.2660
   2699 C          -43.1081    27.5897   -26.4040 C       2      m2     0.0270
   2700 C          -43.1355    27.9647   -25.0576 C       2      m2     0.0800
   2701 C          -42.8803    26.9155   -23.9807 C       2      m2     0.0270
   2702 O          -44.1117    26.5330   -23.4031 O       2      m2    -0.1595
   2703 C          -44.1182    25.6001   -22.3940 C       2      m2     0.0265
   2704 C          -45.3028    25.2042   -21.8888 C       2      m2    -0.1268
   2705 C          -45.4039    24.2963   -20.9066 C       2      m2    -0.1268
   2706 C          -44.3054    23.7341   -20.3768 C       2      m2     0.0000
   2707 C          -43.1149    24.1104   -20.8720 C       2      m2    -0.1268
   2708 C          -43.0267    25.0200   -21.8554 C       2      m2    -0.1268
   2709 C          -44.4073    22.7031   -19.2756 C       2      m2    -0.1060
   2710 C          -44.5315    21.3245   -19.8842 C       2      m2     0.0000
   2711 C          -45.7323    20.7906   -20.1599 C       2      m2    -0.1268
   2712 C          -45.8299    19.5699   -20.7070 C       2      m2    -0.1268
   2713 C          -44.7519    18.8204   -21.0095 C       2      m2     0.0265
   2714 C          -43.5545    19.3735   -20.7293 C       2      m2    -0.1268
   2715 C          -43.4442    20.5943   -20.1816 C       2      m2    -0.1268
   2716 O          -44.9482    17.5805   -21.5688 O       2      m2    -0.1595
   2717 C          -43.8269    16.7828   -21.8891 C       2      m2     0.0270
   2718 C          -44.3021    15.4822   -22.5281 C       2      m2     0.0800
   2719 C          -44.3227    14.3092   -21.7679 C       2      m2     0.0270
   2720 O          -43.1005    14.5314   -22.6779 O       2      m2    -0.2660
   2721 H          -43.5054    28.2630   -27.1627 H       2      m2     0.0530
   2722 H          -42.8816    26.5667   -26.6998 H       2      m2     0.0530
   2723 H          -43.5923    28.9111   -24.7508 H       2      m2     0.0530
   2724 H          -42.3860    26.0126   -24.4072 H       2      m2     0.0530
   2725 H          -42.2311    27.3747   -23.1994 H       2      m2     0.0530
   2726 H          -46.2283    25.6431   -22.3001 H       2      m2     0.1268
   2727 H          -46.4018    24.0096   -20.5356 H       2      m2     0.1268
   2728 H          -42.1914    23.6635   -20.4671 H       2      m2     0.1268
   2729 H          -42.0147    25.2746   -22.2079 H       2      m2     0.1268
   2730 H          -43.5184    22.7552   -18.6060 H       2      m2     0.0530
   2731 H          -45.2793    22.9210   -18.6173 H       2      m2     0.0530
   2732 H          -46.6510    21.3587   -19.9382 H       2      m2     0.1268
   2733 H          -46.8343    19.1644   -20.9192 H       2      m2     0.1268
   2734 H          -42.6162    18.8381   -20.9439 H       2      m2     0.1268
   2735 H          -42.4409    21.0036   -19.9754 H       2      m2     0.1268
   2736 H          -43.1907    17.3189   -22.6313 H       2      m2     0.0530
   2737 H          -43.2465    16.5858   -20.9587 H       2      m2     0.0530
   2738 H          -44.8604    15.5486   -23.4674 H       2      m2     0.0530
   2739 H          -44.8630    13.4363   -22.1322 H       2      m2     0.0530
   2740 H          -43.9805    14.3012   -20.7345 H       2      m2     0.0530
@<TRIPOS>BOND
     1      1      2      1
     2      1     20      1
     3      2      3      1
     4      2     22      1
     5      3      4      1
     6      4      5      1
     7      4     24      1
     8      5      6      1
     9      6      7      1
    10      6     26      1
    11      7      8      1
    12      8      9      1
    13      8     28      1
    14      9     10      1
    15     10     11      1
    16     10     30      1
    17     11     12      1
    18     12     13      1
    19     12     32      1
    20     13     14      1
    21     14     15      1
    22     14     34      1
    23     15     16      1
    24     16     17      1
    25     16     36      1
    26     17     18      1
    27     18     19      1
    28     18     38      1
    29     19     20      1
    30     20     40      1
    31     21     22      1
    32     21     40      1
    33     21     41      1
    34     22     23      1
    35     23     24      1
    36     23     43      1
    37     24     25      1
    38     25     26      1
    39     25     45      1
    40     26     27      1
    41     27     28      1
    42     27     47      1
    43     28     29      1
    44     29     30      1
    45     29     49      1
    46     30     31      1
    47     31     32      1
    48     31     51      1
    49     32     33      1
    50     33     34      1
    51     33     53      1
    52     34     35      1
    53     35     36      1
    54     35     55      1
    55     36     37      1
    56     37     38      1
    57     37     57      1
    58     38     39      1
    59     39     40      1
    60     39     59      1
    61     41     42      1
    62     41     60      1
    63     42     43      1
    64     42     62      1
    65     43     44      1
    66     44     45      1
    67     44     64      1
    68     45     46      1
    69     46     47      1
    70     46     66      1
    71     47     48      1
    72     48     49      1
    73     48     68      1
    74     49     50      1
    75     50     51      1
    76     50     70      1
    77     51     52      1
    78     52     53      1
    79     52     72      1
    80     53     54      1
    81     54     55      1
    82     54     74      1
    83     55     56      1
    84     56     57      1
    85     56     76      1
    86     57     58      1
    87     58     59      1
    88     58     78      1
    89     59     60      1
    90     60     80      1
    91     61     62      1
    92     61     80      1
    93     61     81      1
    94     62     63      1
    95     63     64      1
    96     63     83      1
    97     64     65      1
    98     65     66      1
    99     65     85      1
   100     66     67      1
   101     67     68      1
   102     67     87      1
   103     68     69      1
   104     69     70      1
   105     69     89      1
   106     70     71      1
   107     71     72      1
   108     71     91      1
   109     72     73      1
   110     73     74      1
   111     73     93      1
   112     74     75      1
   113     75     76      1
   114     75     95      1
   115     76     77      1
   116     77     78      1
   117     77     97      1
   118     78     79      1
   119     79     80      1
   120     79     99      1
   121     81     82      1
   122     81    100      1
   123     82     83      1
   124     82    102      1
   125     83     84      1
   126     84     85      1
   127     84    104      1
   128     85     86      1
   129     86     87      1
   130     86    106      1
   131     87     88      1
   132     88     89      1
   133     88    108      1
   134     89     90      1
   135     90     91      1
   136     90    110      1
   137     91     92      1
   138     92     93      1
   139     92    112      1
   140     93     94      1
   141     94     95      1
   142     94    114      1
   143     95     96      1
   144     96     97      1
   145     96    116      1
   146     97     98      1
   147     98     99      1
   148     98    118      1
   149     99    100      1
   150    100    120      1
   151    101    102      1
   152    101    120      1
   153    101    121      1
   154    102    103      1
   155    103    104      1
   156    103    123      1
   157    104    105      1
   158    105    106      1
   159    105    125      1
   160    106    107      1
   161    107    108      1
   162    107    127      1
   163    108    109      1
   164    109    110      1
   165    109    129      1
   166    110    111      1
   167    111    112      1
   168    111    131      1
   169    112    113      1
   170    113    114      1
   171    113    133      1
   172    114    115      1
   173    115    116      1
   174    115    135      1
   175    116    117      1
   176    117    118      1
   177    117    137      1
   178    118    119      1
   179    119    120      1
   180    119    139      1
   181    121    122      1
   182    121    140      1
   183    122    123      1
   184    122    142      1
   185    123    124      1
   186    124    125      1
   187    124    144      1
   188    125    126      1
   189    126    127      1
   190    126    146      1
   191    127    128      1
   192    128    129      1
   193    128    148      1
   194    129    130      1
   195    130    131      1
   196    130    150      1
   197    131    132      1
   198    132    133      1
   199    132    152      1
   200    133    134      1
   201    134    135      1
   202    134    154      1
   203    135    136      1
   204    136    137      1
   205    136    156      1
   206    137    138      1
   207    138    139      1
   208    138    158      1
   209    139    140      1
   210    140    160      1
   211    141    142      1
   212    141    160      1
   213    142    143      1
   214    143    144      1
   215    144    145      1
   216    145    146      1
   217    146    147      1
   218    147    148      1
   219    148    149      1
   220    149    150      1
   221    150    151      1
   222    151    152      1
   223    152    153      1
   224    153    154      1
   225    154    155      1
   226    155    156      1
   227    156    157      1
   228    157    158      1
   229    158    159      1
   230    159    160      1
   231    162    161      1
   232    163    161      1
   233    162    163      1
   234    162    184      1
   235    162    185      1
   236    164    163      1
   237    163    186      1
   238    164    165      1
   239    164    187      1
   240    164    188      1
   241    166    165      1
   242    166    167      1
   243    166    171      1
   244    167    168      1
   245    167    189      1
   246    168    169      1
   247    168    190      1
   248    169    170      1
   249    172    169      1
   250    170    171      1
   251    170    191      1
   252    171    192      1
   253    172    173      1
   254    172    193      1
   255    172    194      1
   256    173    174      1
   257    173    178      1
   258    174    175      1
   259    174    195      1
   260    175    176      1
   261    175    196      1
   262    176    177      1
   263    176    179      1
   264    177    178      1
   265    177    197      1
   266    178    198      1
   267    180    179      1
   268    180    181      1
   269    180    199      1
   270    180    200      1
   271    181    182      1
   272    181    183      1
   273    181    201      1
   274    182    183      1
   275    182    202      1
   276    182    203      1
   277    205    204      1
   278    206    204      1
   279    205    206      1
   280    205    227      1
   281    205    228      1
   282    207    206      1
   283    206    229      1
   284    207    208      1
   285    207    230      1
   286    207    231      1
   287    209    208      1
   288    209    210      1
   289    209    214      1
   290    210    211      1
   291    210    232      1
   292    211    212      1
   293    211    233      1
   294    212    213      1
   295    215    212      1
   296    213    214      1
   297    213    234      1
   298    214    235      1
   299    215    216      1
   300    215    236      1
   301    215    237      1
   302    216    217      1
   303    216    221      1
   304    217    218      1
   305    217    238      1
   306    218    219      1
   307    218    239      1
   308    219    220      1
   309    219    222      1
   310    220    221      1
   311    220    240      1
   312    221    241      1
   313    223    222      1
   314    223    224      1
   315    223    242      1
   316    223    243      1
   317    224    225      1
   318    224    226      1
   319    224    244      1
   320    225    226      1
   321    225    245      1
   322    225    246      1
   323    248    247      1
   324    249    247      1
   325    248    249      1
   326    248    270      1
   327    248    271      1
   328    250    249      1
   329    249    272      1
   330    250    251      1
   331    250    273      1
   332    250    274      1
   333    252    251      1
   334    252    253      1
   335    252    257      1
   336    253    254      1
   337    253    275      1
   338    254    255      1
   339    254    276      1
   340    255    256      1
   341    258    255      1
   342    256    257      1
   343    256    277      1
   344    257    278      1
   345    258    259      1
   346    258    279      1
   347    258    280      1
   348    259    260      1
   349    259    264      1
   350    260    261      1
   351    260    281      1
   352    261    262      1
   353    261    282      1
   354    262    263      1
   355    262    265      1
   356    263    264      1
   357    263    283      1
   358    264    284      1
   359    266    265      1
   360    266    267      1
   361    266    285      1
   362    266    286      1
   363    267    268      1
   364    267    269      1
   365    267    287      1
   366    268    269      1
   367    268    288      1
   368    268    289      1
   369    291    290      1
   370    292    290      1
   371    291    292      1
   372    291    313      1
   373    291    314      1
   374    293    292      1
   375    292    315      1
   376    293    294      1
   377    293    316      1
   378    293    317      1
   379    295    294      1
   380    295    296      1
   381    295    300      1
   382    296    297      1
   383    296    318      1
   384    297    298      1
   385    297    319      1
   386    298    299      1
   387    301    298      1
   388    299    300      1
   389    299    320      1
   390    300    321      1
   391    301    302      1
   392    301    322      1
   393    301    323      1
   394    302    303      1
   395    302    307      1
   396    303    304      1
   397    303    324      1
   398    304    305      1
   399    304    325      1
   400    305    306      1
   401    305    308      1
   402    306    307      1
   403    306    326      1
   404    307    327      1
   405    309    308      1
   406    309    310      1
   407    309    328      1
   408    309    329      1
   409    310    311      1
   410    310    312      1
   411    310    330      1
   412    311    312      1
   413    311    331      1
   414    311    332      1
   415    334    333      1
   416    335    333      1
   417    334    335      1
   418    334    356      1
   419    334    357      1
   420    336    335      1
   421    335    358      1
   422    336    337      1
   423    336    359      1
   424    336    360      1
   425    338    337      1
   426    338    339      1
   427    338    343      1
   428    339    340      1
   429    339    361      1
   430    340    341      1
   431    340    362      1
   432    341    342      1
   433    344    341      1
   434    342    343      1
   435    342    363      1
   436    343    364      1
   437    344    345      1
   438    344    365      1
   439    344    366      1
   440    345    346      1
   441    345    350      1
   442    346    347      1
   443    346    367      1
   444    347    348      1
   445    347    368      1
   446    348    349      1
   447    348    351      1
   448    349    350      1
   449    349    369      1
   450    350    370      1
   451    352    351      1
   452    352    353      1
   453    352    371      1
   454    352    372      1
   455    353    354      1
   456    353    355      1
   457    353    373      1
   458    354    355      1
   459    354    374      1
   460    354    375      1
   461    377    376      1
   462    378    376      1
   463    377    378      1
   464    377    399      1
   465    377    400      1
   466    379    378      1
   467    378    401      1
   468    379    380      1
   469    379    402      1
   470    379    403      1
   471    381    380      1
   472    381    382      1
   473    381    386      1
   474    382    383      1
   475    382    404      1
   476    383    384      1
   477    383    405      1
   478    384    385      1
   479    387    384      1
   480    385    386      1
   481    385    406      1
   482    386    407      1
   483    387    388      1
   484    387    408      1
   485    387    409      1
   486    388    389      1
   487    388    393      1
   488    389    390      1
   489    389    410      1
   490    390    391      1
   491    390    411      1
   492    391    392      1
   493    391    394      1
   494    392    393      1
   495    392    412      1
   496    393    413      1
   497    395    394      1
   498    395    396      1
   499    395    414      1
   500    395    415      1
   501    396    397      1
   502    396    398      1
   503    396    416      1
   504    397    398      1
   505    397    417      1
   506    397    418      1
   507    420    419      1
   508    421    419      1
   509    420    421      1
   510    420    442      1
   511    420    443      1
   512    422    421      1
   513    421    444      1
   514    422    423      1
   515    422    445      1
   516    422    446      1
   517    424    423      1
   518    424    425      1
   519    424    429      1
   520    425    426      1
   521    425    447      1
   522    426    427      1
   523    426    448      1
   524    427    428      1
   525    430    427      1
   526    428    429      1
   527    428    449      1
   528    429    450      1
   529    430    431      1
   530    430    451      1
   531    430    452      1
   532    431    432      1
   533    431    436      1
   534    432    433      1
   535    432    453      1
   536    433    434      1
   537    433    454      1
   538    434    435      1
   539    434    437      1
   540    435    436      1
   541    435    455      1
   542    436    456      1
   543    438    437      1
   544    438    439      1
   545    438    457      1
   546    438    458      1
   547    439    440      1
   548    439    441      1
   549    439    459      1
   550    440    441      1
   551    440    460      1
   552    440    461      1
   553    463    462      1
   554    464    462      1
   555    463    464      1
   556    463    485      1
   557    463    486      1
   558    465    464      1
   559    464    487      1
   560    465    466      1
   561    465    488      1
   562    465    489      1
   563    467    466      1
   564    467    468      1
   565    467    472      1
   566    468    469      1
   567    468    490      1
   568    469    470      1
   569    469    491      1
   570    470    471      1
   571    473    470      1
   572    471    472      1
   573    471    492      1
   574    472    493      1
   575    473    474      1
   576    473    494      1
   577    473    495      1
   578    474    475      1
   579    474    479      1
   580    475    476      1
   581    475    496      1
   582    476    477      1
   583    476    497      1
   584    477    478      1
   585    477    480      1
   586    478    479      1
   587    478    498      1
   588    479    499      1
   589    481    480      1
   590    481    482      1
   591    481    500      1
   592    481    501      1
   593    482    483      1
   594    482    484      1
   595    482    502      1
   596    483    484      1
   597    483    503      1
   598    483    504      1
   599    506    505      1
   600    507    505      1
   601    506    507      1
   602    506    528      1
   603    506    529      1
   604    508    507      1
   605    507    530      1
   606    508    509      1
   607    508    531      1
   608    508    532      1
   609    510    509      1
   610    510    511      1
   611    510    515      1
   612    511    512      1
   613    511    533      1
   614    512    513      1
   615    512    534      1
   616    513    514      1
   617    516    513      1
   618    514    515      1
   619    514    535      1
   620    515    536      1
   621    516    517      1
   622    516    537      1
   623    516    538      1
   624    517    518      1
   625    517    522      1
   626    518    519      1
   627    518    539      1
   628    519    520      1
   629    519    540      1
   630    520    521      1
   631    520    523      1
   632    521    522      1
   633    521    541      1
   634    522    542      1
   635    524    523      1
   636    524    525      1
   637    524    543      1
   638    524    544      1
   639    525    526      1
   640    525    527      1
   641    525    545      1
   642    526    527      1
   643    526    546      1
   644    526    547      1
   645    549    548      1
   646    550    548      1
   647    549    550      1
   648    549    571      1
   649    549    572      1
   650    551    550      1
   651    550    573      1
   652    551    552      1
   653    551    574      1
   654    551    575      1
   655    553    552      1
   656    553    554      1
   657    553    558      1
   658    554    555      1
   659    554    576      1
   660    555    556      1
   661    555    577      1
   662    556    557      1
   663    559    556      1
   664    557    558      1
   665    557    578      1
   666    558    579      1
   667    559    560      1
   668    559    580      1
   669    559    581      1
   670    560    561      1
   671    560    565      1
   672    561    562      1
   673    561    582      1
   674    562    563      1
   675    562    583      1
   676    563    564      1
   677    563    566      1
   678    564    565      1
   679    564    584      1
   680    565    585      1
   681    567    566      1
   682    567    568      1
   683    567    586      1
   684    567    587      1
   685    568    569      1
   686    568    570      1
   687    568    588      1
   688    569    570      1
   689    569    589      1
   690    569    590      1
   691    592    591      1
   692    593    591      1
   693    592    593      1
   694    592    614      1
   695    592    615      1
   696    594    593      1
   697    593    616      1
   698    594    595      1
   699    594    617      1
   700    594    618      1
   701    596    595      1
   702    596    597      1
   703    596    601      1
   704    597    598      1
   705    597    619      1
   706    598    599      1
   707    598    620      1
   708    599    600      1
   709    602    599      1
   710    600    601      1
   711    600    621      1
   712    601    622      1
   713    602    603      1
   714    602    623      1
   715    602    624      1
   716    603    604      1
   717    603    608      1
   718    604    605      1
   719    604    625      1
   720    605    606      1
   721    605    626      1
   722    606    607      1
   723    606    609      1
   724    607    608      1
   725    607    627      1
   726    608    628      1
   727    610    609      1
   728    610    611      1
   729    610    629      1
   730    610    630      1
   731    611    612      1
   732    611    613      1
   733    611    631      1
   734    612    613      1
   735    612    632      1
   736    612    633      1
   737    635    634      1
   738    636    634      1
   739    635    636      1
   740    635    657      1
   741    635    658      1
   742    637    636      1
   743    636    659      1
   744    637    638      1
   745    637    660      1
   746    637    661      1
   747    639    638      1
   748    639    640      1
   749    639    644      1
   750    640    641      1
   751    640    662      1
   752    641    642      1
   753    641    663      1
   754    642    643      1
   755    645    642      1
   756    643    644      1
   757    643    664      1
   758    644    665      1
   759    645    646      1
   760    645    666      1
   761    645    667      1
   762    646    647      1
   763    646    651      1
   764    647    648      1
   765    647    668      1
   766    648    649      1
   767    648    669      1
   768    649    650      1
   769    649    652      1
   770    650    651      1
   771    650    670      1
   772    651    671      1
   773    653    652      1
   774    653    654      1
   775    653    672      1
   776    653    673      1
   777    654    655      1
   778    654    656      1
   779    654    674      1
   780    655    656      1
   781    655    675      1
   782    655    676      1
   783    678    677      1
   784    679    677      1
   785    678    679      1
   786    678    700      1
   787    678    701      1
   788    680    679      1
   789    679    702      1
   790    680    681      1
   791    680    703      1
   792    680    704      1
   793    682    681      1
   794    682    683      1
   795    682    687      1
   796    683    684      1
   797    683    705      1
   798    684    685      1
   799    684    706      1
   800    685    686      1
   801    688    685      1
   802    686    687      1
   803    686    707      1
   804    687    708      1
   805    688    689      1
   806    688    709      1
   807    688    710      1
   808    689    690      1
   809    689    694      1
   810    690    691      1
   811    690    711      1
   812    691    692      1
   813    691    712      1
   814    692    693      1
   815    692    695      1
   816    693    694      1
   817    693    713      1
   818    694    714      1
   819    696    695      1
   820    696    697      1
   821    696    715      1
   822    696    716      1
   823    697    698      1
   824    697    699      1
   825    697    717      1
   826    698    699      1
   827    698    718      1
   828    698    719      1
   829    721    720      1
   830    722    720      1
   831    721    722      1
   832    721    743      1
   833    721    744      1
   834    723    722      1
   835    722    745      1
   836    723    724      1
   837    723    746      1
   838    723    747      1
   839    725    724      1
   840    725    726      1
   841    725    730      1
   842    726    727      1
   843    726    748      1
   844    727    728      1
   845    727    749      1
   846    728    729      1
   847    731    728      1
   848    729    730      1
   849    729    750      1
   850    730    751      1
   851    731    732      1
   852    731    752      1
   853    731    753      1
   854    732    733      1
   855    732    737      1
   856    733    734      1
   857    733    754      1
   858    734    735      1
   859    734    755      1
   860    735    736      1
   861    735    738      1
   862    736    737      1
   863    736    756      1
   864    737    757      1
   865    739    738      1
   866    739    740      1
   867    739    758      1
   868    739    759      1
   869    740    741      1
   870    740    742      1
   871    740    760      1
   872    741    742      1
   873    741    761      1
   874    741    762      1
   875    764    763      1
   876    765    763      1
   877    764    765      1
   878    764    786      1
   879    764    787      1
   880    766    765      1
   881    765    788      1
   882    766    767      1
   883    766    789      1
   884    766    790      1
   885    768    767      1
   886    768    769      1
   887    768    773      1
   888    769    770      1
   889    769    791      1
   890    770    771      1
   891    770    792      1
   892    771    772      1
   893    774    771      1
   894    772    773      1
   895    772    793      1
   896    773    794      1
   897    774    775      1
   898    774    795      1
   899    774    796      1
   900    775    776      1
   901    775    780      1
   902    776    777      1
   903    776    797      1
   904    777    778      1
   905    777    798      1
   906    778    779      1
   907    778    781      1
   908    779    780      1
   909    779    799      1
   910    780    800      1
   911    782    781      1
   912    782    783      1
   913    782    801      1
   914    782    802      1
   915    783    784      1
   916    783    785      1
   917    783    803      1
   918    784    785      1
   919    784    804      1
   920    784    805      1
   921    807    806      1
   922    808    806      1
   923    807    808      1
   924    807    829      1
   925    807    830      1
   926    809    808      1
   927    808    831      1
   928    809    810      1
   929    809    832      1
   930    809    833      1
   931    811    810      1
   932    811    812      1
   933    811    816      1
   934    812    813      1
   935    812    834      1
   936    813    814      1
   937    813    835      1
   938    814    815      1
   939    817    814      1
   940    815    816      1
   941    815    836      1
   942    816    837      1
   943    817    818      1
   944    817    838      1
   945    817    839      1
   946    818    819      1
   947    818    823      1
   948    819    820      1
   949    819    840      1
   950    820    821      1
   951    820    841      1
   952    821    822      1
   953    821    824      1
   954    822    823      1
   955    822    842      1
   956    823    843      1
   957    825    824      1
   958    825    826      1
   959    825    844      1
   960    825    845      1
   961    826    827      1
   962    826    828      1
   963    826    846      1
   964    827    828      1
   965    827    847      1
   966    827    848      1
   967    850    849      1
   968    851    849      1
   969    850    851      1
   970    850    872      1
   971    850    873      1
   972    852    851      1
   973    851    874      1
   974    852    853      1
   975    852    875      1
   976    852    876      1
   977    854    853      1
   978    854    855      1
   979    854    859      1
   980    855    856      1
   981    855    877      1
   982    856    857      1
   983    856    878      1
   984    857    858      1
   985    860    857      1
   986    858    859      1
   987    858    879      1
   988    859    880      1
   989    860    861      1
   990    860    881      1
   991    860    882      1
   992    861    862      1
   993    861    866      1
   994    862    863      1
   995    862    883      1
   996    863    864      1
   997    863    884      1
   998    864    865      1
   999    864    867      1
  1000    865    866      1
  1001    865    885      1
  1002    866    886      1
  1003    868    867      1
  1004    868    869      1
  1005    868    887      1
  1006    868    888      1
  1007    869    870      1
  1008    869    871      1
  1009    869    889      1
  1010    870    871      1
  1011    870    890      1
  1012    870    891      1
  1013    893    892      1
  1014    894    892      1
  1015    893    894      1
  1016    893    915      1
  1017    893    916      1
  1018    895    894      1
  1019    894    917      1
  1020    895    896      1
  1021    895    918      1
  1022    895    919      1
  1023    897    896      1
  1024    897    898      1
  1025    897    902      1
  1026    898    899      1
  1027    898    920      1
  1028    899    900      1
  1029    899    921      1
  1030    900    901      1
  1031    903    900      1
  1032    901    902      1
  1033    901    922      1
  1034    902    923      1
  1035    903    904      1
  1036    903    924      1
  1037    903    925      1
  1038    904    905      1
  1039    904    909      1
  1040    905    906      1
  1041    905    926      1
  1042    906    907      1
  1043    906    927      1
  1044    907    908      1
  1045    907    910      1
  1046    908    909      1
  1047    908    928      1
  1048    909    929      1
  1049    911    910      1
  1050    911    912      1
  1051    911    930      1
  1052    911    931      1
  1053    912    913      1
  1054    912    914      1
  1055    912    932      1
  1056    913    914      1
  1057    913    933      1
  1058    913    934      1
  1059    936    935      1
  1060    937    935      1
  1061    936    937      1
  1062    936    958      1
  1063    936    959      1
  1064    938    937      1
  1065    937    960      1
  1066    938    939      1
  1067    938    961      1
  1068    938    962      1
  1069    940    939      1
  1070    940    941      1
  1071    940    945      1
  1072    941    942      1
  1073    941    963      1
  1074    942    943      1
  1075    942    964      1
  1076    943    944      1
  1077    946    943      1
  1078    944    945      1
  1079    944    965      1
  1080    945    966      1
  1081    946    947      1
  1082    946    967      1
  1083    946    968      1
  1084    947    948      1
  1085    947    952      1
  1086    948    949      1
  1087    948    969      1
  1088    949    950      1
  1089    949    970      1
  1090    950    951      1
  1091    950    953      1
  1092    951    952      1
  1093    951    971      1
  1094    952    972      1
  1095    954    953      1
  1096    954    955      1
  1097    954    973      1
  1098    954    974      1
  1099    955    956      1
  1100    955    957      1
  1101    955    975      1
  1102    956    957      1
  1103    956    976      1
  1104    956    977      1
  1105    979    978      1
  1106    980    978      1
  1107    979    980      1
  1108    979   1001      1
  1109    979   1002      1
  1110    981    980      1
  1111    980   1003      1
  1112    981    982      1
  1113    981   1004      1
  1114    981   1005      1
  1115    983    982      1
  1116    983    984      1
  1117    983    988      1
  1118    984    985      1
  1119    984   1006      1
  1120    985    986      1
  1121    985   1007      1
  1122    986    987      1
  1123    989    986      1
  1124    987    988      1
  1125    987   1008      1
  1126    988   1009      1
  1127    989    990      1
  1128    989   1010      1
  1129    989   1011      1
  1130    990    991      1
  1131    990    995      1
  1132    991    992      1
  1133    991   1012      1
  1134    992    993      1
  1135    992   1013      1
  1136    993    994      1
  1137    993    996      1
  1138    994    995      1
  1139    994   1014      1
  1140    995   1015      1
  1141    997    996      1
  1142    997    998      1
  1143    997   1016      1
  1144    997   1017      1
  1145    998    999      1
  1146    998   1000      1
  1147    998   1018      1
  1148    999   1000      1
  1149    999   1019      1
  1150    999   1020      1
  1151   1022   1021      1
  1152   1023   1021      1
  1153   1022   1023      1
  1154   1022   1044      1
  1155   1022   1045      1
  1156   1024   1023      1
  1157   1023   1046      1
  1158   1024   1025      1
  1159   1024   1047      1
  1160   1024   1048      1
  1161   1026   1025      1
  1162   1026   1027      1
  1163   1026   1031      1
  1164   1027   1028      1
  1165   1027   1049      1
  1166   1028   1029      1
  1167   1028   1050      1
  1168   1029   1030      1
  1169   1032   1029      1
  1170   1030   1031      1
  1171   1030   1051      1
  1172   1031   1052      1
  1173   1032   1033      1
  1174   1032   1053      1
  1175   1032   1054      1
  1176   1033   1034      1
  1177   1033   1038      1
  1178   1034   1035      1
  1179   1034   1055      1
  1180   1035   1036      1
  1181   1035   1056      1
  1182   1036   1037      1
  1183   1036   1039      1
  1184   1037   1038      1
  1185   1037   1057      1
  1186   1038   1058      1
  1187   1040   1039      1
  1188   1040   1041      1
  1189   1040   1059      1
  1190   1040   1060      1
  1191   1041   1042      1
  1192   1041   1043      1
  1193   1041   1061      1
  1194   1042   1043      1
  1195   1042   1062      1
  1196   1042   1063      1
  1197   1065   1064      1
  1198   1066   1064      1
  1199   1065   1066      1
  1200   1065   1087      1
  1201   1065   1088      1
  1202   1067   1066      1
  1203   1066   1089      1
  1204   1067   1068      1
  1205   1067   1090      1
  1206   1067   1091      1
  1207   1069   1068      1
  1208   1069   1070      1
  1209   1069   1074      1
  1210   1070   1071      1
  1211   1070   1092      1
  1212   1071   1072      1
  1213   1071   1093      1
  1214   1072   1073      1
  1215   1075   1072      1
  1216   1073   1074      1
  1217   1073   1094      1
  1218   1074   1095      1
  1219   1075   1076      1
  1220   1075   1096      1
  1221   1075   1097      1
  1222   1076   1077      1
  1223   1076   1081      1
  1224   1077   1078      1
  1225   1077   1098      1
  1226   1078   1079      1
  1227   1078   1099      1
  1228   1079   1080      1
  1229   1079   1082      1
  1230   1080   1081      1
  1231   1080   1100      1
  1232   1081   1101      1
  1233   1083   1082      1
  1234   1083   1084      1
  1235   1083   1102      1
  1236   1083   1103      1
  1237   1084   1085      1
  1238   1084   1086      1
  1239   1084   1104      1
  1240   1085   1086      1
  1241   1085   1105      1
  1242   1085   1106      1
  1243   1108   1107      1
  1244   1109   1107      1
  1245   1108   1109      1
  1246   1108   1130      1
  1247   1108   1131      1
  1248   1110   1109      1
  1249   1109   1132      1
  1250   1110   1111      1
  1251   1110   1133      1
  1252   1110   1134      1
  1253   1112   1111      1
  1254   1112   1113      1
  1255   1112   1117      1
  1256   1113   1114      1
  1257   1113   1135      1
  1258   1114   1115      1
  1259   1114   1136      1
  1260   1115   1116      1
  1261   1118   1115      1
  1262   1116   1117      1
  1263   1116   1137      1
  1264   1117   1138      1
  1265   1118   1119      1
  1266   1118   1139      1
  1267   1118   1140      1
  1268   1119   1120      1
  1269   1119   1124      1
  1270   1120   1121      1
  1271   1120   1141      1
  1272   1121   1122      1
  1273   1121   1142      1
  1274   1122   1123      1
  1275   1122   1125      1
  1276   1123   1124      1
  1277   1123   1143      1
  1278   1124   1144      1
  1279   1126   1125      1
  1280   1126   1127      1
  1281   1126   1145      1
  1282   1126   1146      1
  1283   1127   1128      1
  1284   1127   1129      1
  1285   1127   1147      1
  1286   1128   1129      1
  1287   1128   1148      1
  1288   1128   1149      1
  1289   1151   1150      1
  1290   1152   1150      1
  1291   1151   1152      1
  1292   1151   1173      1
  1293   1151   1174      1
  1294   1153   1152      1
  1295   1152   1175      1
  1296   1153   1154      1
  1297   1153   1176      1
  1298   1153   1177      1
  1299   1155   1154      1
  1300   1155   1156      1
  1301   1155   1160      1
  1302   1156   1157      1
  1303   1156   1178      1
  1304   1157   1158      1
  1305   1157   1179      1
  1306   1158   1159      1
  1307   1161   1158      1
  1308   1159   1160      1
  1309   1159   1180      1
  1310   1160   1181      1
  1311   1161   1162      1
  1312   1161   1182      1
  1313   1161   1183      1
  1314   1162   1163      1
  1315   1162   1167      1
  1316   1163   1164      1
  1317   1163   1184      1
  1318   1164   1165      1
  1319   1164   1185      1
  1320   1165   1166      1
  1321   1165   1168      1
  1322   1166   1167      1
  1323   1166   1186      1
  1324   1167   1187      1
  1325   1169   1168      1
  1326   1169   1170      1
  1327   1169   1188      1
  1328   1169   1189      1
  1329   1170   1171      1
  1330   1170   1172      1
  1331   1170   1190      1
  1332   1171   1172      1
  1333   1171   1191      1
  1334   1171   1192      1
  1335   1194   1193      1
  1336   1195   1193      1
  1337   1194   1195      1
  1338   1194   1216      1
  1339   1194   1217      1
  1340   1196   1195      1
  1341   1195   1218      1
  1342   1196   1197      1
  1343   1196   1219      1
  1344   1196   1220      1
  1345   1198   1197      1
  1346   1198   1199      1
  1347   1198   1203      1
  1348   1199   1200      1
  1349   1199   1221      1
  1350   1200   1201      1
  1351   1200   1222      1
  1352   1201   1202      1
  1353   1204   1201      1
  1354   1202   1203      1
  1355   1202   1223      1
  1356   1203   1224      1
  1357   1204   1205      1
  1358   1204   1225      1
  1359   1204   1226      1
  1360   1205   1206      1
  1361   1205   1210      1
  1362   1206   1207      1
  1363   1206   1227      1
  1364   1207   1208      1
  1365   1207   1228      1
  1366   1208   1209      1
  1367   1208   1211      1
  1368   1209   1210      1
  1369   1209   1229      1
  1370   1210   1230      1
  1371   1212   1211      1
  1372   1212   1213      1
  1373   1212   1231      1
  1374   1212   1232      1
  1375   1213   1214      1
  1376   1213   1215      1
  1377   1213   1233      1
  1378   1214   1215      1
  1379   1214   1234      1
  1380   1214   1235      1
  1381   1237   1236      1
  1382   1238   1236      1
  1383   1237   1238      1
  1384   1237   1259      1
  1385   1237   1260      1
  1386   1239   1238      1
  1387   1238   1261      1
  1388   1239   1240      1
  1389   1239   1262      1
  1390   1239   1263      1
  1391   1241   1240      1
  1392   1241   1242      1
  1393   1241   1246      1
  1394   1242   1243      1
  1395   1242   1264      1
  1396   1243   1244      1
  1397   1243   1265      1
  1398   1244   1245      1
  1399   1247   1244      1
  1400   1245   1246      1
  1401   1245   1266      1
  1402   1246   1267      1
  1403   1247   1248      1
  1404   1247   1268      1
  1405   1247   1269      1
  1406   1248   1249      1
  1407   1248   1253      1
  1408   1249   1250      1
  1409   1249   1270      1
  1410   1250   1251      1
  1411   1250   1271      1
  1412   1251   1252      1
  1413   1251   1254      1
  1414   1252   1253      1
  1415   1252   1272      1
  1416   1253   1273      1
  1417   1255   1254      1
  1418   1255   1256      1
  1419   1255   1274      1
  1420   1255   1275      1
  1421   1256   1257      1
  1422   1256   1258      1
  1423   1256   1276      1
  1424   1257   1258      1
  1425   1257   1277      1
  1426   1257   1278      1
  1427   1280   1279      1
  1428   1281   1279      1
  1429   1280   1281      1
  1430   1280   1302      1
  1431   1280   1303      1
  1432   1282   1281      1
  1433   1281   1304      1
  1434   1282   1283      1
  1435   1282   1305      1
  1436   1282   1306      1
  1437   1284   1283      1
  1438   1284   1285      1
  1439   1284   1289      1
  1440   1285   1286      1
  1441   1285   1307      1
  1442   1286   1287      1
  1443   1286   1308      1
  1444   1287   1288      1
  1445   1290   1287      1
  1446   1288   1289      1
  1447   1288   1309      1
  1448   1289   1310      1
  1449   1290   1291      1
  1450   1290   1311      1
  1451   1290   1312      1
  1452   1291   1292      1
  1453   1291   1296      1
  1454   1292   1293      1
  1455   1292   1313      1
  1456   1293   1294      1
  1457   1293   1314      1
  1458   1294   1295      1
  1459   1294   1297      1
  1460   1295   1296      1
  1461   1295   1315      1
  1462   1296   1316      1
  1463   1298   1297      1
  1464   1298   1299      1
  1465   1298   1317      1
  1466   1298   1318      1
  1467   1299   1300      1
  1468   1299   1301      1
  1469   1299   1319      1
  1470   1300   1301      1
  1471   1300   1320      1
  1472   1300   1321      1
  1473   1323   1322      1
  1474   1324   1322      1
  1475   1323   1324      1
  1476   1323   1345      1
  1477   1323   1346      1
  1478   1325   1324      1
  1479   1324   1347      1
  1480   1325   1326      1
  1481   1325   1348      1
  1482   1325   1349      1
  1483   1327   1326      1
  1484   1327   1328      1
  1485   1327   1332      1
  1486   1328   1329      1
  1487   1328   1350      1
  1488   1329   1330      1
  1489   1329   1351      1
  1490   1330   1331      1
  1491   1333   1330      1
  1492   1331   1332      1
  1493   1331   1352      1
  1494   1332   1353      1
  1495   1333   1334      1
  1496   1333   1354      1
  1497   1333   1355      1
  1498   1334   1335      1
  1499   1334   1339      1
  1500   1335   1336      1
  1501   1335   1356      1
  1502   1336   1337      1
  1503   1336   1357      1
  1504   1337   1338      1
  1505   1337   1340      1
  1506   1338   1339      1
  1507   1338   1358      1
  1508   1339   1359      1
  1509   1341   1340      1
  1510   1341   1342      1
  1511   1341   1360      1
  1512   1341   1361      1
  1513   1342   1343      1
  1514   1342   1344      1
  1515   1342   1362      1
  1516   1343   1344      1
  1517   1343   1363      1
  1518   1343   1364      1
  1519   1366   1365      1
  1520   1367   1365      1
  1521   1366   1367      1
  1522   1366   1388      1
  1523   1366   1389      1
  1524   1368   1367      1
  1525   1367   1390      1
  1526   1368   1369      1
  1527   1368   1391      1
  1528   1368   1392      1
  1529   1370   1369      1
  1530   1370   1371      1
  1531   1370   1375      1
  1532   1371   1372      1
  1533   1371   1393      1
  1534   1372   1373      1
  1535   1372   1394      1
  1536   1373   1374      1
  1537   1376   1373      1
  1538   1374   1375      1
  1539   1374   1395      1
  1540   1375   1396      1
  1541   1376   1377      1
  1542   1376   1397      1
  1543   1376   1398      1
  1544   1377   1378      1
  1545   1377   1382      1
  1546   1378   1379      1
  1547   1378   1399      1
  1548   1379   1380      1
  1549   1379   1400      1
  1550   1380   1381      1
  1551   1380   1383      1
  1552   1381   1382      1
  1553   1381   1401      1
  1554   1382   1402      1
  1555   1384   1383      1
  1556   1384   1385      1
  1557   1384   1403      1
  1558   1384   1404      1
  1559   1385   1386      1
  1560   1385   1387      1
  1561   1385   1405      1
  1562   1386   1387      1
  1563   1386   1406      1
  1564   1386   1407      1
  1565   1409   1408      1
  1566   1410   1408      1
  1567   1409   1410      1
  1568   1409   1431      1
  1569   1409   1432      1
  1570   1411   1410      1
  1571   1410   1433      1
  1572   1411   1412      1
  1573   1411   1434      1
  1574   1411   1435      1
  1575   1413   1412      1
  1576   1413   1414      1
  1577   1413   1418      1
  1578   1414   1415      1
  1579   1414   1436      1
  1580   1415   1416      1
  1581   1415   1437      1
  1582   1416   1417      1
  1583   1419   1416      1
  1584   1417   1418      1
  1585   1417   1438      1
  1586   1418   1439      1
  1587   1419   1420      1
  1588   1419   1440      1
  1589   1419   1441      1
  1590   1420   1421      1
  1591   1420   1425      1
  1592   1421   1422      1
  1593   1421   1442      1
  1594   1422   1423      1
  1595   1422   1443      1
  1596   1423   1424      1
  1597   1423   1426      1
  1598   1424   1425      1
  1599   1424   1444      1
  1600   1425   1445      1
  1601   1427   1426      1
  1602   1427   1428      1
  1603   1427   1446      1
  1604   1427   1447      1
  1605   1428   1429      1
  1606   1428   1430      1
  1607   1428   1448      1
  1608   1429   1430      1
  1609   1429   1449      1
  1610   1429   1450      1
  1611   1452   1451      1
  1612   1453   1451      1
  1613   1452   1453      1
  1614   1452   1474      1
  1615   1452   1475      1
  1616   1454   1453      1
  1617   1453   1476      1
  1618   1454   1455      1
  1619   1454   1477      1
  1620   1454   1478      1
  1621   1456   1455      1
  1622   1456   1457      1
  1623   1456   1461      1
  1624   1457   1458      1
  1625   1457   1479      1
  1626   1458   1459      1
  1627   1458   1480      1
  1628   1459   1460      1
  1629   1462   1459      1
  1630   1460   1461      1
  1631   1460   1481      1
  1632   1461   1482      1
  1633   1462   1463      1
  1634   1462   1483      1
  1635   1462   1484      1
  1636   1463   1464      1
  1637   1463   1468      1
  1638   1464   1465      1
  1639   1464   1485      1
  1640   1465   1466      1
  1641   1465   1486      1
  1642   1466   1467      1
  1643   1466   1469      1
  1644   1467   1468      1
  1645   1467   1487      1
  1646   1468   1488      1
  1647   1470   1469      1
  1648   1470   1471      1
  1649   1470   1489      1
  1650   1470   1490      1
  1651   1471   1472      1
  1652   1471   1473      1
  1653   1471   1491      1
  1654   1472   1473      1
  1655   1472   1492      1
  1656   1472   1493      1
  1657   1495   1494      1
  1658   1496   1494      1
  1659   1495   1496      1
  1660   1495   1517      1
  1661   1495   1518      1
  1662   1497   1496      1
  1663   1496   1519      1
  1664   1497   1498      1
  1665   1497   1520      1
  1666   1497   1521      1
  1667   1499   1498      1
  1668   1499   1500      1
  1669   1499   1504      1
  1670   1500   1501      1
  1671   1500   1522      1
  1672   1501   1502      1
  1673   1501   1523      1
  1674   1502   1503      1
  1675   1505   1502      1
  1676   1503   1504      1
  1677   1503   1524      1
  1678   1504   1525      1
  1679   1505   1506      1
  1680   1505   1526      1
  1681   1505   1527      1
  1682   1506   1507      1
  1683   1506   1511      1
  1684   1507   1508      1
  1685   1507   1528      1
  1686   1508   1509      1
  1687   1508   1529      1
  1688   1509   1510      1
  1689   1509   1512      1
  1690   1510   1511      1
  1691   1510   1530      1
  1692   1511   1531      1
  1693   1513   1512      1
  1694   1513   1514      1
  1695   1513   1532      1
  1696   1513   1533      1
  1697   1514   1515      1
  1698   1514   1516      1
  1699   1514   1534      1
  1700   1515   1516      1
  1701   1515   1535      1
  1702   1515   1536      1
  1703   1538   1537      1
  1704   1539   1537      1
  1705   1538   1539      1
  1706   1538   1560      1
  1707   1538   1561      1
  1708   1540   1539      1
  1709   1539   1562      1
  1710   1540   1541      1
  1711   1540   1563      1
  1712   1540   1564      1
  1713   1542   1541      1
  1714   1542   1543      1
  1715   1542   1547      1
  1716   1543   1544      1
  1717   1543   1565      1
  1718   1544   1545      1
  1719   1544   1566      1
  1720   1545   1546      1
  1721   1548   1545      1
  1722   1546   1547      1
  1723   1546   1567      1
  1724   1547   1568      1
  1725   1548   1549      1
  1726   1548   1569      1
  1727   1548   1570      1
  1728   1549   1550      1
  1729   1549   1554      1
  1730   1550   1551      1
  1731   1550   1571      1
  1732   1551   1552      1
  1733   1551   1572      1
  1734   1552   1553      1
  1735   1552   1555      1
  1736   1553   1554      1
  1737   1553   1573      1
  1738   1554   1574      1
  1739   1556   1555      1
  1740   1556   1557      1
  1741   1556   1575      1
  1742   1556   1576      1
  1743   1557   1558      1
  1744   1557   1559      1
  1745   1557   1577      1
  1746   1558   1559      1
  1747   1558   1578      1
  1748   1558   1579      1
  1749   1581   1580      1
  1750   1582   1580      1
  1751   1581   1582      1
  1752   1581   1603      1
  1753   1581   1604      1
  1754   1583   1582      1
  1755   1582   1605      1
  1756   1583   1584      1
  1757   1583   1606      1
  1758   1583   1607      1
  1759   1585   1584      1
  1760   1585   1586      1
  1761   1585   1590      1
  1762   1586   1587      1
  1763   1586   1608      1
  1764   1587   1588      1
  1765   1587   1609      1
  1766   1588   1589      1
  1767   1591   1588      1
  1768   1589   1590      1
  1769   1589   1610      1
  1770   1590   1611      1
  1771   1591   1592      1
  1772   1591   1612      1
  1773   1591   1613      1
  1774   1592   1593      1
  1775   1592   1597      1
  1776   1593   1594      1
  1777   1593   1614      1
  1778   1594   1595      1
  1779   1594   1615      1
  1780   1595   1596      1
  1781   1595   1598      1
  1782   1596   1597      1
  1783   1596   1616      1
  1784   1597   1617      1
  1785   1599   1598      1
  1786   1599   1600      1
  1787   1599   1618      1
  1788   1599   1619      1
  1789   1600   1601      1
  1790   1600   1602      1
  1791   1600   1620      1
  1792   1601   1602      1
  1793   1601   1621      1
  1794   1601   1622      1
  1795   1624   1623      1
  1796   1625   1623      1
  1797   1624   1625      1
  1798   1624   1646      1
  1799   1624   1647      1
  1800   1626   1625      1
  1801   1625   1648      1
  1802   1626   1627      1
  1803   1626   1649      1
  1804   1626   1650      1
  1805   1628   1627      1
  1806   1628   1629      1
  1807   1628   1633      1
  1808   1629   1630      1
  1809   1629   1651      1
  1810   1630   1631      1
  1811   1630   1652      1
  1812   1631   1632      1
  1813   1634   1631      1
  1814   1632   1633      1
  1815   1632   1653      1
  1816   1633   1654      1
  1817   1634   1635      1
  1818   1634   1655      1
  1819   1634   1656      1
  1820   1635   1636      1
  1821   1635   1640      1
  1822   1636   1637      1
  1823   1636   1657      1
  1824   1637   1638      1
  1825   1637   1658      1
  1826   1638   1639      1
  1827   1638   1641      1
  1828   1639   1640      1
  1829   1639   1659      1
  1830   1640   1660      1
  1831   1642   1641      1
  1832   1642   1643      1
  1833   1642   1661      1
  1834   1642   1662      1
  1835   1643   1644      1
  1836   1643   1645      1
  1837   1643   1663      1
  1838   1644   1645      1
  1839   1644   1664      1
  1840   1644   1665      1
  1841   1667   1666      1
  1842   1668   1666      1
  1843   1667   1668      1
  1844   1667   1689      1
  1845   1667   1690      1
  1846   1669   1668      1
  1847   1668   1691      1
  1848   1669   1670      1
  1849   1669   1692      1
  1850   1669   1693      1
  1851   1671   1670      1
  1852   1671   1672      1
  1853   1671   1676      1
  1854   1672   1673      1
  1855   1672   1694      1
  1856   1673   1674      1
  1857   1673   1695      1
  1858   1674   1675      1
  1859   1677   1674      1
  1860   1675   1676      1
  1861   1675   1696      1
  1862   1676   1697      1
  1863   1677   1678      1
  1864   1677   1698      1
  1865   1677   1699      1
  1866   1678   1679      1
  1867   1678   1683      1
  1868   1679   1680      1
  1869   1679   1700      1
  1870   1680   1681      1
  1871   1680   1701      1
  1872   1681   1682      1
  1873   1681   1684      1
  1874   1682   1683      1
  1875   1682   1702      1
  1876   1683   1703      1
  1877   1685   1684      1
  1878   1685   1686      1
  1879   1685   1704      1
  1880   1685   1705      1
  1881   1686   1687      1
  1882   1686   1688      1
  1883   1686   1706      1
  1884   1687   1688      1
  1885   1687   1707      1
  1886   1687   1708      1
  1887   1710   1709      1
  1888   1711   1709      1
  1889   1710   1711      1
  1890   1710   1732      1
  1891   1710   1733      1
  1892   1712   1711      1
  1893   1711   1734      1
  1894   1712   1713      1
  1895   1712   1735      1
  1896   1712   1736      1
  1897   1714   1713      1
  1898   1714   1715      1
  1899   1714   1719      1
  1900   1715   1716      1
  1901   1715   1737      1
  1902   1716   1717      1
  1903   1716   1738      1
  1904   1717   1718      1
  1905   1720   1717      1
  1906   1718   1719      1
  1907   1718   1739      1
  1908   1719   1740      1
  1909   1720   1721      1
  1910   1720   1741      1
  1911   1720   1742      1
  1912   1721   1722      1
  1913   1721   1726      1
  1914   1722   1723      1
  1915   1722   1743      1
  1916   1723   1724      1
  1917   1723   1744      1
  1918   1724   1725      1
  1919   1724   1727      1
  1920   1725   1726      1
  1921   1725   1745      1
  1922   1726   1746      1
  1923   1728   1727      1
  1924   1728   1729      1
  1925   1728   1747      1
  1926   1728   1748      1
  1927   1729   1730      1
  1928   1729   1731      1
  1929   1729   1749      1
  1930   1730   1731      1
  1931   1730   1750      1
  1932   1730   1751      1
  1933   1753   1752      1
  1934   1754   1752      1
  1935   1753   1754      1
  1936   1753   1775      1
  1937   1753   1776      1
  1938   1755   1754      1
  1939   1754   1777      1
  1940   1755   1756      1
  1941   1755   1778      1
  1942   1755   1779      1
  1943   1757   1756      1
  1944   1757   1758      1
  1945   1757   1762      1
  1946   1758   1759      1
  1947   1758   1780      1
  1948   1759   1760      1
  1949   1759   1781      1
  1950   1760   1761      1
  1951   1763   1760      1
  1952   1761   1762      1
  1953   1761   1782      1
  1954   1762   1783      1
  1955   1763   1764      1
  1956   1763   1784      1
  1957   1763   1785      1
  1958   1764   1765      1
  1959   1764   1769      1
  1960   1765   1766      1
  1961   1765   1786      1
  1962   1766   1767      1
  1963   1766   1787      1
  1964   1767   1768      1
  1965   1767   1770      1
  1966   1768   1769      1
  1967   1768   1788      1
  1968   1769   1789      1
  1969   1771   1770      1
  1970   1771   1772      1
  1971   1771   1790      1
  1972   1771   1791      1
  1973   1772   1773      1
  1974   1772   1774      1
  1975   1772   1792      1
  1976   1773   1774      1
  1977   1773   1793      1
  1978   1773   1794      1
  1979   1796   1795      1
  1980   1797   1795      1
  1981   1796   1797      1
  1982   1796   1818      1
  1983   1796   1819      1
  1984   1798   1797      1
  1985   1797   1820      1
  1986   1798   1799      1
  1987   1798   1821      1
  1988   1798   1822      1
  1989   1800   1799      1
  1990   1800   1801      1
  1991   1800   1805      1
  1992   1801   1802      1
  1993   1801   1823      1
  1994   1802   1803      1
  1995   1802   1824      1
  1996   1803   1804      1
  1997   1806   1803      1
  1998   1804   1805      1
  1999   1804   1825      1
  2000   1805   1826      1
  2001   1806   1807      1
  2002   1806   1827      1
  2003   1806   1828      1
  2004   1807   1808      1
  2005   1807   1812      1
  2006   1808   1809      1
  2007   1808   1829      1
  2008   1809   1810      1
  2009   1809   1830      1
  2010   1810   1811      1
  2011   1810   1813      1
  2012   1811   1812      1
  2013   1811   1831      1
  2014   1812   1832      1
  2015   1814   1813      1
  2016   1814   1815      1
  2017   1814   1833      1
  2018   1814   1834      1
  2019   1815   1816      1
  2020   1815   1817      1
  2021   1815   1835      1
  2022   1816   1817      1
  2023   1816   1836      1
  2024   1816   1837      1
  2025   1839   1838      1
  2026   1840   1838      1
  2027   1839   1840      1
  2028   1839   1861      1
  2029   1839   1862      1
  2030   1841   1840      1
  2031   1840   1863      1
  2032   1841   1842      1
  2033   1841   1864      1
  2034   1841   1865      1
  2035   1843   1842      1
  2036   1843   1844      1
  2037   1843   1848      1
  2038   1844   1845      1
  2039   1844   1866      1
  2040   1845   1846      1
  2041   1845   1867      1
  2042   1846   1847      1
  2043   1849   1846      1
  2044   1847   1848      1
  2045   1847   1868      1
  2046   1848   1869      1
  2047   1849   1850      1
  2048   1849   1870      1
  2049   1849   1871      1
  2050   1850   1851      1
  2051   1850   1855      1
  2052   1851   1852      1
  2053   1851   1872      1
  2054   1852   1853      1
  2055   1852   1873      1
  2056   1853   1854      1
  2057   1853   1856      1
  2058   1854   1855      1
  2059   1854   1874      1
  2060   1855   1875      1
  2061   1857   1856      1
  2062   1857   1858      1
  2063   1857   1876      1
  2064   1857   1877      1
  2065   1858   1859      1
  2066   1858   1860      1
  2067   1858   1878      1
  2068   1859   1860      1
  2069   1859   1879      1
  2070   1859   1880      1
  2071   1882   1881      1
  2072   1883   1881      1
  2073   1882   1883      1
  2074   1882   1904      1
  2075   1882   1905      1
  2076   1884   1883      1
  2077   1883   1906      1
  2078   1884   1885      1
  2079   1884   1907      1
  2080   1884   1908      1
  2081   1886   1885      1
  2082   1886   1887      1
  2083   1886   1891      1
  2084   1887   1888      1
  2085   1887   1909      1
  2086   1888   1889      1
  2087   1888   1910      1
  2088   1889   1890      1
  2089   1892   1889      1
  2090   1890   1891      1
  2091   1890   1911      1
  2092   1891   1912      1
  2093   1892   1893      1
  2094   1892   1913      1
  2095   1892   1914      1
  2096   1893   1894      1
  2097   1893   1898      1
  2098   1894   1895      1
  2099   1894   1915      1
  2100   1895   1896      1
  2101   1895   1916      1
  2102   1896   1897      1
  2103   1896   1899      1
  2104   1897   1898      1
  2105   1897   1917      1
  2106   1898   1918      1
  2107   1900   1899      1
  2108   1900   1901      1
  2109   1900   1919      1
  2110   1900   1920      1
  2111   1901   1902      1
  2112   1901   1903      1
  2113   1901   1921      1
  2114   1902   1903      1
  2115   1902   1922      1
  2116   1902   1923      1
  2117   1925   1924      1
  2118   1926   1924      1
  2119   1925   1926      1
  2120   1925   1947      1
  2121   1925   1948      1
  2122   1927   1926      1
  2123   1926   1949      1
  2124   1927   1928      1
  2125   1927   1950      1
  2126   1927   1951      1
  2127   1929   1928      1
  2128   1929   1930      1
  2129   1929   1934      1
  2130   1930   1931      1
  2131   1930   1952      1
  2132   1931   1932      1
  2133   1931   1953      1
  2134   1932   1933      1
  2135   1935   1932      1
  2136   1933   1934      1
  2137   1933   1954      1
  2138   1934   1955      1
  2139   1935   1936      1
  2140   1935   1956      1
  2141   1935   1957      1
  2142   1936   1937      1
  2143   1936   1941      1
  2144   1937   1938      1
  2145   1937   1958      1
  2146   1938   1939      1
  2147   1938   1959      1
  2148   1939   1940      1
  2149   1939   1942      1
  2150   1940   1941      1
  2151   1940   1960      1
  2152   1941   1961      1
  2153   1943   1942      1
  2154   1943   1944      1
  2155   1943   1962      1
  2156   1943   1963      1
  2157   1944   1945      1
  2158   1944   1946      1
  2159   1944   1964      1
  2160   1945   1946      1
  2161   1945   1965      1
  2162   1945   1966      1
  2163   1968   1967      1
  2164   1969   1967      1
  2165   1968   1969      1
  2166   1968   1990      1
  2167   1968   1991      1
  2168   1970   1969      1
  2169   1969   1992      1
  2170   1970   1971      1
  2171   1970   1993      1
  2172   1970   1994      1
  2173   1972   1971      1
  2174   1972   1973      1
  2175   1972   1977      1
  2176   1973   1974      1
  2177   1973   1995      1
  2178   1974   1975      1
  2179   1974   1996      1
  2180   1975   1976      1
  2181   1978   1975      1
  2182   1976   1977      1
  2183   1976   1997      1
  2184   1977   1998      1
  2185   1978   1979      1
  2186   1978   1999      1
  2187   1978   2000      1
  2188   1979   1980      1
  2189   1979   1984      1
  2190   1980   1981      1
  2191   1980   2001      1
  2192   1981   1982      1
  2193   1981   2002      1
  2194   1982   1983      1
  2195   1982   1985      1
  2196   1983   1984      1
  2197   1983   2003      1
  2198   1984   2004      1
  2199   1986   1985      1
  2200   1986   1987      1
  2201   1986   2005      1
  2202   1986   2006      1
  2203   1987   1988      1
  2204   1987   1989      1
  2205   1987   2007      1
  2206   1988   1989      1
  2207   1988   2008      1
  2208   1988   2009      1
  2209   2011   2010      1
  2210   2012   2010      1
  2211   2011   2012      1
  2212   2011   2033      1
  2213   2011   2034      1
  2214   2013   2012      1
  2215   2012   2035      1
  2216   2013   2014      1
  2217   2013   2036      1
  2218   2013   2037      1
  2219   2015   2014      1
  2220   2015   2016      1
  2221   2015   2020      1
  2222   2016   2017      1
  2223   2016   2038      1
  2224   2017   2018      1
  2225   2017   2039      1
  2226   2018   2019      1
  2227   2021   2018      1
  2228   2019   2020      1
  2229   2019   2040      1
  2230   2020   2041      1
  2231   2021   2022      1
  2232   2021   2042      1
  2233   2021   2043      1
  2234   2022   2023      1
  2235   2022   2027      1
  2236   2023   2024      1
  2237   2023   2044      1
  2238   2024   2025      1
  2239   2024   2045      1
  2240   2025   2026      1
  2241   2025   2028      1
  2242   2026   2027      1
  2243   2026   2046      1
  2244   2027   2047      1
  2245   2029   2028      1
  2246   2029   2030      1
  2247   2029   2048      1
  2248   2029   2049      1
  2249   2030   2031      1
  2250   2030   2032      1
  2251   2030   2050      1
  2252   2031   2032      1
  2253   2031   2051      1
  2254   2031   2052      1
  2255   2054   2053      1
  2256   2055   2053      1
  2257   2054   2055      1
  2258   2054   2076      1
  2259   2054   2077      1
  2260   2056   2055      1
  2261   2055   2078      1
  2262   2056   2057      1
  2263   2056   2079      1
  2264   2056   2080      1
  2265   2058   2057      1
  2266   2058   2059      1
  2267   2058   2063      1
  2268   2059   2060      1
  2269   2059   2081      1
  2270   2060   2061      1
  2271   2060   2082      1
  2272   2061   2062      1
  2273   2064   2061      1
  2274   2062   2063      1
  2275   2062   2083      1
  2276   2063   2084      1
  2277   2064   2065      1
  2278   2064   2085      1
  2279   2064   2086      1
  2280   2065   2066      1
  2281   2065   2070      1
  2282   2066   2067      1
  2283   2066   2087      1
  2284   2067   2068      1
  2285   2067   2088      1
  2286   2068   2069      1
  2287   2068   2071      1
  2288   2069   2070      1
  2289   2069   2089      1
  2290   2070   2090      1
  2291   2072   2071      1
  2292   2072   2073      1
  2293   2072   2091      1
  2294   2072   2092      1
  2295   2073   2074      1
  2296   2073   2075      1
  2297   2073   2093      1
  2298   2074   2075      1
  2299   2074   2094      1
  2300   2074   2095      1
  2301   2097   2096      1
  2302   2098   2096      1
  2303   2097   2098      1
  2304   2097   2119      1
  2305   2097   2120      1
  2306   2099   2098      1
  2307   2098   2121      1
  2308   2099   2100      1
  2309   2099   2122      1
  2310   2099   2123      1
  2311   2101   2100      1
  2312   2101   2102      1
  2313   2101   2106      1
  2314   2102   2103      1
  2315   2102   2124      1
  2316   2103   2104      1
  2317   2103   2125      1
  2318   2104   2105      1
  2319   2107   2104      1
  2320   2105   2106      1
  2321   2105   2126      1
  2322   2106   2127      1
  2323   2107   2108      1
  2324   2107   2128      1
  2325   2107   2129      1
  2326   2108   2109      1
  2327   2108   2113      1
  2328   2109   2110      1
  2329   2109   2130      1
  2330   2110   2111      1
  2331   2110   2131      1
  2332   2111   2112      1
  2333   2111   2114      1
  2334   2112   2113      1
  2335   2112   2132      1
  2336   2113   2133      1
  2337   2115   2114      1
  2338   2115   2116      1
  2339   2115   2134      1
  2340   2115   2135      1
  2341   2116   2117      1
  2342   2116   2118      1
  2343   2116   2136      1
  2344   2117   2118      1
  2345   2117   2137      1
  2346   2117   2138      1
  2347   2140   2139      1
  2348   2141   2139      1
  2349   2140   2141      1
  2350   2140   2162      1
  2351   2140   2163      1
  2352   2142   2141      1
  2353   2141   2164      1
  2354   2142   2143      1
  2355   2142   2165      1
  2356   2142   2166      1
  2357   2144   2143      1
  2358   2144   2145      1
  2359   2144   2149      1
  2360   2145   2146      1
  2361   2145   2167      1
  2362   2146   2147      1
  2363   2146   2168      1
  2364   2147   2148      1
  2365   2150   2147      1
  2366   2148   2149      1
  2367   2148   2169      1
  2368   2149   2170      1
  2369   2150   2151      1
  2370   2150   2171      1
  2371   2150   2172      1
  2372   2151   2152      1
  2373   2151   2156      1
  2374   2152   2153      1
  2375   2152   2173      1
  2376   2153   2154      1
  2377   2153   2174      1
  2378   2154   2155      1
  2379   2154   2157      1
  2380   2155   2156      1
  2381   2155   2175      1
  2382   2156   2176      1
  2383   2158   2157      1
  2384   2158   2159      1
  2385   2158   2177      1
  2386   2158   2178      1
  2387   2159   2160      1
  2388   2159   2161      1
  2389   2159   2179      1
  2390   2160   2161      1
  2391   2160   2180      1
  2392   2160   2181      1
  2393   2183   2182      1
  2394   2184   2182      1
  2395   2183   2184      1
  2396   2183   2205      1
  2397   2183   2206      1
  2398   2185   2184      1
  2399   2184   2207      1
  2400   2185   2186      1
  2401   2185   2208      1
  2402   2185   2209      1
  2403   2187   2186      1
  2404   2187   2188      1
  2405   2187   2192      1
  2406   2188   2189      1
  2407   2188   2210      1
  2408   2189   2190      1
  2409   2189   2211      1
  2410   2190   2191      1
  2411   2193   2190      1
  2412   2191   2192      1
  2413   2191   2212      1
  2414   2192   2213      1
  2415   2193   2194      1
  2416   2193   2214      1
  2417   2193   2215      1
  2418   2194   2195      1
  2419   2194   2199      1
  2420   2195   2196      1
  2421   2195   2216      1
  2422   2196   2197      1
  2423   2196   2217      1
  2424   2197   2198      1
  2425   2197   2200      1
  2426   2198   2199      1
  2427   2198   2218      1
  2428   2199   2219      1
  2429   2201   2200      1
  2430   2201   2202      1
  2431   2201   2220      1
  2432   2201   2221      1
  2433   2202   2203      1
  2434   2202   2204      1
  2435   2202   2222      1
  2436   2203   2204      1
  2437   2203   2223      1
  2438   2203   2224      1
  2439   2226   2225      1
  2440   2227   2225      1
  2441   2226   2227      1
  2442   2226   2248      1
  2443   2226   2249      1
  2444   2228   2227      1
  2445   2227   2250      1
  2446   2228   2229      1
  2447   2228   2251      1
  2448   2228   2252      1
  2449   2230   2229      1
  2450   2230   2231      1
  2451   2230   2235      1
  2452   2231   2232      1
  2453   2231   2253      1
  2454   2232   2233      1
  2455   2232   2254      1
  2456   2233   2234      1
  2457   2236   2233      1
  2458   2234   2235      1
  2459   2234   2255      1
  2460   2235   2256      1
  2461   2236   2237      1
  2462   2236   2257      1
  2463   2236   2258      1
  2464   2237   2238      1
  2465   2237   2242      1
  2466   2238   2239      1
  2467   2238   2259      1
  2468   2239   2240      1
  2469   2239   2260      1
  2470   2240   2241      1
  2471   2240   2243      1
  2472   2241   2242      1
  2473   2241   2261      1
  2474   2242   2262      1
  2475   2244   2243      1
  2476   2244   2245      1
  2477   2244   2263      1
  2478   2244   2264      1
  2479   2245   2246      1
  2480   2245   2247      1
  2481   2245   2265      1
  2482   2246   2247      1
  2483   2246   2266      1
  2484   2246   2267      1
  2485   2269   2268      1
  2486   2270   2268      1
  2487   2269   2270      1
  2488   2269   2291      1
  2489   2269   2292      1
  2490   2271   2270      1
  2491   2270   2293      1
  2492   2271   2272      1
  2493   2271   2294      1
  2494   2271   2295      1
  2495   2273   2272      1
  2496   2273   2274      1
  2497   2273   2278      1
  2498   2274   2275      1
  2499   2274   2296      1
  2500   2275   2276      1
  2501   2275   2297      1
  2502   2276   2277      1
  2503   2279   2276      1
  2504   2277   2278      1
  2505   2277   2298      1
  2506   2278   2299      1
  2507   2279   2280      1
  2508   2279   2300      1
  2509   2279   2301      1
  2510   2280   2281      1
  2511   2280   2285      1
  2512   2281   2282      1
  2513   2281   2302      1
  2514   2282   2283      1
  2515   2282   2303      1
  2516   2283   2284      1
  2517   2283   2286      1
  2518   2284   2285      1
  2519   2284   2304      1
  2520   2285   2305      1
  2521   2287   2286      1
  2522   2287   2288      1
  2523   2287   2306      1
  2524   2287   2307      1
  2525   2288   2289      1
  2526   2288   2290      1
  2527   2288   2308      1
  2528   2289   2290      1
  2529   2289   2309      1
  2530   2289   2310      1
  2531   2312   2311      1
  2532   2313   2311      1
  2533   2312   2313      1
  2534   2312   2334      1
  2535   2312   2335      1
  2536   2314   2313      1
  2537   2313   2336      1
  2538   2314   2315      1
  2539   2314   2337      1
  2540   2314   2338      1
  2541   2316   2315      1
  2542   2316   2317      1
  2543   2316   2321      1
  2544   2317   2318      1
  2545   2317   2339      1
  2546   2318   2319      1
  2547   2318   2340      1
  2548   2319   2320      1
  2549   2322   2319      1
  2550   2320   2321      1
  2551   2320   2341      1
  2552   2321   2342      1
  2553   2322   2323      1
  2554   2322   2343      1
  2555   2322   2344      1
  2556   2323   2324      1
  2557   2323   2328      1
  2558   2324   2325      1
  2559   2324   2345      1
  2560   2325   2326      1
  2561   2325   2346      1
  2562   2326   2327      1
  2563   2326   2329      1
  2564   2327   2328      1
  2565   2327   2347      1
  2566   2328   2348      1
  2567   2330   2329      1
  2568   2330   2331      1
  2569   2330   2349      1
  2570   2330   2350      1
  2571   2331   2332      1
  2572   2331   2333      1
  2573   2331   2351      1
  2574   2332   2333      1
  2575   2332   2352      1
  2576   2332   2353      1
  2577   2355   2354      1
  2578   2356   2354      1
  2579   2355   2356      1
  2580   2355   2377      1
  2581   2355   2378      1
  2582   2357   2356      1
  2583   2356   2379      1
  2584   2357   2358      1
  2585   2357   2380      1
  2586   2357   2381      1
  2587   2359   2358      1
  2588   2359   2360      1
  2589   2359   2364      1
  2590   2360   2361      1
  2591   2360   2382      1
  2592   2361   2362      1
  2593   2361   2383      1
  2594   2362   2363      1
  2595   2365   2362      1
  2596   2363   2364      1
  2597   2363   2384      1
  2598   2364   2385      1
  2599   2365   2366      1
  2600   2365   2386      1
  2601   2365   2387      1
  2602   2366   2367      1
  2603   2366   2371      1
  2604   2367   2368      1
  2605   2367   2388      1
  2606   2368   2369      1
  2607   2368   2389      1
  2608   2369   2370      1
  2609   2369   2372      1
  2610   2370   2371      1
  2611   2370   2390      1
  2612   2371   2391      1
  2613   2373   2372      1
  2614   2373   2374      1
  2615   2373   2392      1
  2616   2373   2393      1
  2617   2374   2375      1
  2618   2374   2376      1
  2619   2374   2394      1
  2620   2375   2376      1
  2621   2375   2395      1
  2622   2375   2396      1
  2623   2398   2397      1
  2624   2399   2397      1
  2625   2398   2399      1
  2626   2398   2420      1
  2627   2398   2421      1
  2628   2400   2399      1
  2629   2399   2422      1
  2630   2400   2401      1
  2631   2400   2423      1
  2632   2400   2424      1
  2633   2402   2401      1
  2634   2402   2403      1
  2635   2402   2407      1
  2636   2403   2404      1
  2637   2403   2425      1
  2638   2404   2405      1
  2639   2404   2426      1
  2640   2405   2406      1
  2641   2408   2405      1
  2642   2406   2407      1
  2643   2406   2427      1
  2644   2407   2428      1
  2645   2408   2409      1
  2646   2408   2429      1
  2647   2408   2430      1
  2648   2409   2410      1
  2649   2409   2414      1
  2650   2410   2411      1
  2651   2410   2431      1
  2652   2411   2412      1
  2653   2411   2432      1
  2654   2412   2413      1
  2655   2412   2415      1
  2656   2413   2414      1
  2657   2413   2433      1
  2658   2414   2434      1
  2659   2416   2415      1
  2660   2416   2417      1
  2661   2416   2435      1
  2662   2416   2436      1
  2663   2417   2418      1
  2664   2417   2419      1
  2665   2417   2437      1
  2666   2418   2419      1
  2667   2418   2438      1
  2668   2418   2439      1
  2669   2441   2440      1
  2670   2442   2440      1
  2671   2441   2442      1
  2672   2441   2463      1
  2673   2441   2464      1
  2674   2443   2442      1
  2675   2442   2465      1
  2676   2443   2444      1
  2677   2443   2466      1
  2678   2443   2467      1
  2679   2445   2444      1
  2680   2445   2446      1
  2681   2445   2450      1
  2682   2446   2447      1
  2683   2446   2468      1
  2684   2447   2448      1
  2685   2447   2469      1
  2686   2448   2449      1
  2687   2451   2448      1
  2688   2449   2450      1
  2689   2449   2470      1
  2690   2450   2471      1
  2691   2451   2452      1
  2692   2451   2472      1
  2693   2451   2473      1
  2694   2452   2453      1
  2695   2452   2457      1
  2696   2453   2454      1
  2697   2453   2474      1
  2698   2454   2455      1
  2699   2454   2475      1
  2700   2455   2456      1
  2701   2455   2458      1
  2702   2456   2457      1
  2703   2456   2476      1
  2704   2457   2477      1
  2705   2459   2458      1
  2706   2459   2460      1
  2707   2459   2478      1
  2708   2459   2479      1
  2709   2460   2461      1
  2710   2460   2462      1
  2711   2460   2480      1
  2712   2461   2462      1
  2713   2461   2481      1
  2714   2461   2482      1
  2715   2484   2483      1
  2716   2485   2483      1
  2717   2484   2485      1
  2718   2484   2506      1
  2719   2484   2507      1
  2720   2486   2485      1
  2721   2485   2508      1
  2722   2486   2487      1
  2723   2486   2509      1
  2724   2486   2510      1
  2725   2488   2487      1
  2726   2488   2489      1
  2727   2488   2493      1
  2728   2489   2490      1
  2729   2489   2511      1
  2730   2490   2491      1
  2731   2490   2512      1
  2732   2491   2492      1
  2733   2494   2491      1
  2734   2492   2493      1
  2735   2492   2513      1
  2736   2493   2514      1
  2737   2494   2495      1
  2738   2494   2515      1
  2739   2494   2516      1
  2740   2495   2496      1
  2741   2495   2500      1
  2742   2496   2497      1
  2743   2496   2517      1
  2744   2497   2498      1
  2745   2497   2518      1
  2746   2498   2499      1
  2747   2498   2501      1
  2748   2499   2500      1
  2749   2499   2519      1
  2750   2500   2520      1
  2751   2502   2501      1
  2752   2502   2503      1
  2753   2502   2521      1
  2754   2502   2522      1
  2755   2503   2504      1
  2756   2503   2505      1
  2757   2503   2523      1
  2758   2504   2505      1
  2759   2504   2524      1
  2760   2504   2525      1
  2761   2527   2526      1
  2762   2528   2526      1
  2763   2527   2528      1
  2764   2527   2549      1
  2765   2527   2550      1
  2766   2529   2528      1
  2767   2528   2551      1
  2768   2529   2530      1
  2769   2529   2552      1
  2770   2529   2553      1
  2771   2531   2530      1
  2772   2531   2532      1
  2773   2531   2536      1
  2774   2532   2533      1
  2775   2532   2554      1
  2776   2533   2534      1
  2777   2533   2555      1
  2778   2534   2535      1
  2779   2537   2534      1
  2780   2535   2536      1
  2781   2535   2556      1
  2782   2536   2557      1
  2783   2537   2538      1
  2784   2537   2558      1
  2785   2537   2559      1
  2786   2538   2539      1
  2787   2538   2543      1
  2788   2539   2540      1
  2789   2539   2560      1
  2790   2540   2541      1
  2791   2540   2561      1
  2792   2541   2542      1
  2793   2541   2544      1
  2794   2542   2543      1
  2795   2542   2562      1
  2796   2543   2563      1
  2797   2545   2544      1
  2798   2545   2546      1
  2799   2545   2564      1
  2800   2545   2565      1
  2801   2546   2547      1
  2802   2546   2548      1
  2803   2546   2566      1
  2804   2547   2548      1
  2805   2547   2567      1
  2806   2547   2568      1
  2807   2570   2569      1
  2808   2571   2569      1
  2809   2570   2571      1
  2810   2570   2592      1
  2811   2570   2593      1
  2812   2572   2571      1
  2813   2571   2594      1
  2814   2572   2573      1
  2815   2572   2595      1
  2816   2572   2596      1
  2817   2574   2573      1
  2818   2574   2575      1
  2819   2574   2579      1
  2820   2575   2576      1
  2821   2575   2597      1
  2822   2576   2577      1
  2823   2576   2598      1
  2824   2577   2578      1
  2825   2580   2577      1
  2826   2578   2579      1
  2827   2578   2599      1
  2828   2579   2600      1
  2829   2580   2581      1
  2830   2580   2601      1
  2831   2580   2602      1
  2832   2581   2582      1
  2833   2581   2586      1
  2834   2582   2583      1
  2835   2582   2603      1
  2836   2583   2584      1
  2837   2583   2604      1
  2838   2584   2585      1
  2839   2584   2587      1
  2840   2585   2586      1
  2841   2585   2605      1
  2842   2586   2606      1
  2843   2588   2587      1
  2844   2588   2589      1
  2845   2588   2607      1
  2846   2588   2608      1
  2847   2589   2590      1
  2848   2589   2591      1
  2849   2589   2609      1
  2850   2590   2591      1
  2851   2590   2610      1
  2852   2590   2611      1
  2853   2613   2612      1
  2854   2614   2612      1
  2855   2613   2614      1
  2856   2613   2635      1
  2857   2613   2636      1
  2858   2615   2614      1
  2859   2614   2637      1
  2860   2615   2616      1
  2861   2615   2638      1
  2862   2615   2639      1
  2863   2617   2616      1
  2864   2617   2618      1
  2865   2617   2622      1
  2866   2618   2619      1
  2867   2618   2640      1
  2868   2619   2620      1
  2869   2619   2641      1
  2870   2620   2621      1
  2871   2623   2620      1
  2872   2621   2622      1
  2873   2621   2642      1
  2874   2622   2643      1
  2875   2623   2624      1
  2876   2623   2644      1
  2877   2623   2645      1
  2878   2624   2625      1
  2879   2624   2629      1
  2880   2625   2626      1
  2881   2625   2646      1
  2882   2626   2627      1
  2883   2626   2647      1
  2884   2627   2628      1
  2885   2627   2630      1
  2886   2628   2629      1
  2887   2628   2648      1
  2888   2629   2649      1
  2889   2631   2630      1
  2890   2631   2632      1
  2891   2631   2650      1
  2892   2631   2651      1
  2893   2632   2633      1
  2894   2632   2634      1
  2895   2632   2652      1
  2896   2633   2634      1
  2897   2633   2653      1
  2898   2633   2654      1
  2899   2656   2655      1
  2900   2657   2655      1
  2901   2656   2657      1
  2902   2656   2678      1
  2903   2656   2679      1
  2904   2658   2657      1
  2905   2657   2680      1
  2906   2658   2659      1
  2907   2658   2681      1
  2908   2658   2682      1
  2909   2660   2659      1
  2910   2660   2661      1
  2911   2660   2665      1
  2912   2661   2662      1
  2913   2661   2683      1
  2914   2662   2663      1
  2915   2662   2684      1
  2916   2663   2664      1
  2917   2666   2663      1
  2918   2664   2665      1
  2919   2664   2685      1
  2920   2665   2686      1
  2921   2666   2667      1
  2922   2666   2687      1
  2923   2666   2688      1
  2924   2667   2668      1
  2925   2667   2672      1
  2926   2668   2669      1
  2927   2668   2689      1
  2928   2669   2670      1
  2929   2669   2690      1
  2930   2670   2671      1
  2931   2670   2673      1
  2932   2671   2672      1
  2933   2671   2691      1
  2934   2672   2692      1
  2935   2674   2673      1
  2936   2674   2675      1
  2937   2674   2693      1
  2938   2674   2694      1
  2939   2675   2676      1
  2940   2675   2677      1
  2941   2675   2695      1
  2942   2676   2677      1
  2943   2676   2696      1
  2944   2676   2697      1
  2945   2699   2698      1
  2946   2700   2698      1
  2947   2699   2700      1
  2948   2699   2721      1
  2949   2699   2722      1
  2950   2701   2700      1
  2951   2700   2723      1
  2952   2701   2702      1
  2953   2701   2724      1
  2954   2701   2725      1
  2955   2703   2702      1
  2956   2703   2704      1
  2957   2703   2708      1
  2958   2704   2705      1
  2959   2704   2726      1
  2960   2705   2706      1
  2961   2705   2727      1
  2962   2706   2707      1
  2963   2709   2706      1
  2964   2707   2708      1
  2965   2707   2728      1
  2966   2708   2729      1
  2967   2709   2710      1
  2968   2709   2730      1
  2969   2709   2731      1
  2970   2710   2711      1
  2971   2710   2715      1
  2972   2711   2712      1
  2973   2711   2732      1
  2974   2712   2713      1
  2975   2712   2733      1
  2976   2713   2714      1
  2977   2713   2716      1
  2978   2714   2715      1
  2979   2714   2734      1
  2980   2715   2735      1
  2981   2717   2716      1
  2982   2717   2718      1
  2983   2717   2736      1
  2984   2717   2737      1
  2985   2718   2719      1
  2986   2718   2720      1
  2987   2718   2738      1
  2988   2719   2720      1
  2989   2719   2739      1
  2990   2719   2740      1
