@<TRIPOS>MOLECULE
cell_builder v1.7 / 11 April 2024 (Visualize in VMD w/Coloring Method=ResName to see molecule distribution)
  1170 1230    0    0    0
SMALL
NO_CHARGES
****
Energy = 0

@<TRIPOS>ATOM
      1 C           41.2101    20.8620    19.6005 C       1      m1     0.0000
      2 C           41.8351    19.8539    20.2527 C       1      m1     0.0827
      3 C           42.4704    20.0767    21.4239 C       1      m1     0.0000
      4 C           42.4531    21.3343    21.9066 C       1      m1    -0.1268
      5 C           41.8478    22.3650    21.2970 C       1      m1     0.0000
      6 C           41.2257    22.1029    20.1324 C       1      m1     0.0827
      7 C           41.8601    23.7671    21.8892 C       1      m1    -0.1060
      8 C           42.5933    23.9774    23.2219 C       1      m1    -0.1590
      9 C           43.2258    19.0798    22.3025 C       1      m1    -0.1060
     10 C           43.3819    17.5939    21.9629 C       1      m1    -0.1590
     11 C           40.4793    20.6668    18.2780 C       1      m1    -0.1590
     12 N           40.6427    23.0570    19.5295 N       1      m1    -0.5801
     13 N           41.8097    18.6952    19.7377 N       1      m1    -0.5801
     14 H           42.9706    21.5159    22.8607 H       1      m1     0.1268
     15 H           42.3268    24.4540    21.1415 H       1      m1     0.0530
     16 H           40.8005    24.0886    22.0388 H       1      m1     0.0530
     17 H           42.5263    25.0432    23.5422 H       1      m1     0.0530
     18 H           42.1454    23.3683    24.0402 H       1      m1     0.0530
     19 H           43.6776    23.7353    23.1394 H       1      m1     0.0530
     20 H           44.2633    19.4814    22.4223 H       1      m1     0.0530
     21 H           42.7479    19.1185    23.3134 H       1      m1     0.0530
     22 H           43.9716    17.0751    22.7546 H       1      m1     0.0530
     23 H           42.3995    17.0701    21.9236 H       1      m1     0.0530
     24 H           43.9457    17.4403    21.0145 H       1      m1     0.0530
     25 H           40.4746    19.6445    17.8532 H       1      m1     0.0530
     26 H           39.4047    20.9399    18.3888 H       1      m1     0.0530
     27 H           40.9357    21.3069    17.4885 H       1      m1     0.0530
     28 H           40.1419    22.9157    18.6203 H       1      m1     0.2487
     29 H           40.6381    24.0301    19.9180 H       1      m1     0.2487
     30 H           42.2630    17.8645    20.1701 H       1      m1     0.2487
     31 H           41.3317    18.4756    18.8352 H       1      m1     0.2487
     32 C           19.6619    -0.8211    42.3701 C       1      m1     0.0000
     33 C           20.6068    -1.2163    41.4850 C       1      m1     0.0827
     34 C           21.6944    -0.4512    41.2466 C       1      m1     0.0000
     35 C           21.7934     0.7096    41.9229 C       1      m1    -0.1268
     36 C           20.8838     1.1431    42.8089 C       1      m1     0.0000
     37 C           19.8145     0.3530    43.0191 C       1      m1     0.0827
     38 C           21.0473     2.4652    43.5452 C       1      m1    -0.1060
     39 C           22.2978     3.3043    43.2453 C       1      m1    -0.1590
     40 C           22.8590    -0.7216    40.2943 C       1      m1    -0.1060
     41 C           22.9695    -1.9745    39.4191 C       1      m1    -0.1590
     42 C           18.4170    -1.6441    42.6768 C       1      m1    -0.1590
     43 N           18.9344     0.7344    43.8519 N       1      m1    -0.5801
     44 N           20.4464    -2.3221    40.8851 N       1      m1    -0.5801
     45 H           22.6793     1.3329    41.7287 H       1      m1     0.1268
     46 H           20.1578     3.1012    43.3154 H       1      m1     0.0530
     47 H           21.0454     2.2526    44.6422 H       1      m1     0.0530
     48 H           22.2942     4.2423    43.8478 H       1      m1     0.0530
     49 H           23.2335     2.7592    43.5071 H       1      m1     0.0530
     50 H           22.3424     3.6112    42.1752 H       1      m1     0.0530
     51 H           22.9095     0.1506    39.5953 H       1      m1     0.0530
     52 H           23.7911    -0.6919    40.9126 H       1      m1     0.0530
     53 H           23.9052    -1.9429    38.8132 H       1      m1     0.0530
     54 H           23.0339    -2.9044    40.0291 H       1      m1     0.0530
     55 H           22.1346    -2.0448    38.6850 H       1      m1     0.0530
     56 H           18.3047    -2.6043    42.1374 H       1      m1     0.0530
     57 H           18.3911    -1.9137    43.7576 H       1      m1     0.0530
     58 H           17.5004    -1.0621    42.4269 H       1      m1     0.0530
     59 H           18.0806     0.1634    44.0582 H       1      m1     0.2487
     60 H           19.0257     1.6403    44.3704 H       1      m1     0.2487
     61 H           21.1215    -2.7018    40.1904 H       1      m1     0.2487
     62 H           19.6227    -2.9464    41.0370 H       1      m1     0.2487
     63 C           20.8621   -21.6481    22.4706 C       1      m1     0.0000
     64 C           21.9785   -21.0710    21.9678 C       1      m1     0.0827
     65 C           21.9886   -20.5562    20.7188 C       1      m1     0.0000
     66 C           20.8491   -20.6431    20.0056 C       1      m1    -0.1268
     67 C           19.7189   -21.2051    20.4605 C       1      m1     0.0000
     68 C           19.7485   -21.7066    21.7093 C       1      m1     0.0827
     69 C           18.4588   -21.2756    19.6096 C       1      m1    -0.1060
     70 C           18.5126   -20.6787    18.1958 C       1      m1    -0.1590
     71 C           23.1383   -19.8714    19.9800 C       1      m1    -0.1060
     72 C           24.5298   -19.6560    20.5842 C       1      m1    -0.1590
     73 C           20.7954   -22.2438    23.8712 C       1      m1    -0.1590
     74 N           18.6948   -22.2458    22.1703 N       1      m1    -0.5801
     75 N           23.0147   -21.0252    22.6976 N       1      m1    -0.5801
     76 H           20.8572   -20.2238    18.9881 H       1      m1     0.1268
     77 H           18.1717   -22.3505    19.5054 H       1      m1     0.0530
     78 H           17.6399   -20.7516    20.1603 H       1      m1     0.0530
     79 H           17.5295   -20.7957    17.6833 H       1      m1     0.0530
     80 H           18.7351   -19.5872    18.2166 H       1      m1     0.0530
     81 H           19.2689   -21.1924    17.5591 H       1      m1     0.0530
     82 H           23.2967   -20.4457    19.0329 H       1      m1     0.0530
     83 H           22.7687   -18.8580    19.6830 H       1      m1     0.0530
     84 H           25.1933   -19.1363    19.8540 H       1      m1     0.0530
     85 H           24.4962   -19.0003    21.4842 H       1      m1     0.0530
     86 H           25.0350   -20.6202    20.8208 H       1      m1     0.0530
     87 H           21.7156   -22.1891    24.4843 H       1      m1     0.0530
     88 H           20.0146   -21.7245    24.4730 H       1      m1     0.0530
     89 H           20.5477   -23.3287    23.8161 H       1      m1     0.0530
     90 H           18.6558   -22.6535    23.1345 H       1      m1     0.2487
     91 H           17.8158   -22.3057    21.6030 H       1      m1     0.2487
     92 H           23.9142   -20.6009    22.3919 H       1      m1     0.2487
     93 H           23.0540   -21.4096    23.6681 H       1      m1     0.2487
     94 C           -0.6201   -20.0331    -1.1323 C       1      m1     0.0000
     95 C           -0.0694   -21.2497    -1.3535 C       1      m1     0.0827
     96 C            0.4233   -21.9822    -0.3309 C       1      m1     0.0000
     97 C            0.3420   -21.4514     0.9045 C       1      m1    -0.1268
     98 C           -0.1942   -20.2512     1.1730 C       1      m1     0.0000
     99 C           -0.6744   -19.5517     0.1280 C       1      m1     0.0827
    100 C           -0.2598   -19.7005     2.5905 C       1      m1    -0.1060
    101 C            0.3113   -20.5649     3.7239 C       1      m1    -0.1590
    102 C            1.0770   -23.3631    -0.3767 C       1      m1    -0.1060
    103 C            1.2808   -24.1659    -1.6658 C       1      m1    -0.1590
    104 C           -1.1902   -19.1657    -2.2476 C       1      m1    -0.1590
    105 N           -1.1888   -18.4113     0.3479 N       1      m1    -0.5801
    106 N           -0.0273   -21.6852    -2.5439 N       1      m1    -0.5801
    107 H            0.7434   -22.0481     1.7377 H       1      m1     0.1268
    108 H            0.2868   -18.7260     2.6084 H       1      m1     0.0530
    109 H           -1.3316   -19.4994     2.8341 H       1      m1     0.0530
    110 H            0.2008   -20.0475     4.7052 H       1      m1     0.0530
    111 H           -0.2254   -21.5372     3.8123 H       1      m1     0.0530
    112 H            1.3993   -20.7607     3.5858 H       1      m1     0.0530
    113 H            2.0909   -23.2522     0.0834 H       1      m1     0.0530
    114 H            0.4840   -24.0203     0.3076 H       1      m1     0.0530
    115 H            1.7772   -25.1392    -1.4420 H       1      m1     0.0530
    116 H            0.3131   -24.4236    -2.1535 H       1      m1     0.0530
    117 H            1.9525   -23.6401    -2.3822 H       1      m1     0.0530
    118 H           -1.1389   -19.5725    -3.2759 H       1      m1     0.0530
    119 H           -2.2720   -18.9694    -2.0669 H       1      m1     0.0530
    120 H           -0.6486   -18.1931    -2.2931 H       1      m1     0.0530
    121 H           -1.5791   -17.8200    -0.4238 H       1      m1     0.2487
    122 H           -1.2448   -18.0120     1.3150 H       1      m1     0.2487
    123 H            0.3774   -22.6078    -2.8039 H       1      m1     0.2487
    124 H           -0.3953   -21.1550    -3.3653 H       1      m1     0.2487
    125 C          -22.3120   -42.3730   -41.1391 C       1      m1     0.0000
    126 C          -21.1812   -41.8154   -40.6464 C       1      m1     0.0827
    127 C          -20.1352   -41.5417   -41.4564 C       1      m1     0.0000
    128 C          -20.2686   -41.8461   -42.7618 C       1      m1    -0.1268
    129 C          -21.3683   -42.3989   -43.2960 C       1      m1     0.0000
    130 C          -22.3888   -42.6565   -42.4569 C       1      m1     0.0827
    131 C          -21.4640   -42.7220   -44.7804 C       1      m1    -0.1060
    132 C          -20.2529   -42.3950   -45.6660 C       1      m1    -0.1590
    133 C          -18.7869   -40.9198   -41.0937 C       1      m1    -0.1060
    134 C          -18.4020   -40.4904   -39.6741 C       1      m1    -0.1590
    135 C          -23.5203   -42.7022   -40.2715 C       1      m1    -0.1590
    136 N          -23.4448   -43.1799   -42.9308 N       1      m1    -0.5801
    137 N          -21.1276   -41.5561   -39.4061 N       1      m1    -0.5801
    138 H          -19.4166   -41.6232   -43.4218 H       1      m1     0.1268
    139 H          -21.6651   -43.8163   -44.8837 H       1      m1     0.0530
    140 H          -22.3402   -42.1692   -45.1988 H       1      m1     0.0530
    141 H          -20.4535   -42.6798   -46.7250 H       1      m1     0.0530
    142 H          -20.0233   -41.3048   -45.6655 H       1      m1     0.0530
    143 H          -19.3455   -42.9585   -45.3492 H       1      m1     0.0530
    144 H          -18.0014   -41.6458   -41.4220 H       1      m1     0.0530
    145 H          -18.6716   -40.0102   -41.7350 H       1      m1     0.0530
    146 H          -17.3708   -40.0658   -39.6637 H       1      m1     0.0530
    147 H          -19.0664   -39.6839   -39.2883 H       1      m1     0.0530
    148 H          -18.3825   -41.3525   -38.9690 H       1      m1     0.0530
    149 H          -23.4435   -42.4647   -39.1930 H       1      m1     0.0530
    150 H          -24.4144   -42.1416   -40.6291 H       1      m1     0.0530
    151 H          -23.7374   -43.7942   -40.3133 H       1      m1     0.0530
    152 H          -24.2722   -43.4037   -42.3285 H       1      m1     0.2487
    153 H          -23.5334   -43.4110   -43.9490 H       1      m1     0.2487
    154 H          -20.2992   -41.1283   -38.9441 H       1      m1     0.2487
    155 H          -21.9103   -41.7498   -38.7420 H       1      m1     0.2487
    156 C          -42.3451   -42.8690   -22.3143 C       1      m1     0.0000
    157 C          -42.1879   -41.5250   -22.2799 C       1      m1     0.0827
    158 C          -41.8987   -40.8918   -21.1221 C       1      m1     0.0000
    159 C          -41.7757   -41.6515   -20.0166 C       1      m1    -0.1268
    160 C          -41.9224   -42.9851   -20.0010 C       1      m1     0.0000
    161 C          -42.2100   -43.5793   -21.1741 C       1      m1     0.0827
    162 C          -41.7719   -43.7941   -18.7205 C       1      m1    -0.1060
    163 C          -41.4429   -43.0358   -17.4264 C       1      m1    -0.1590
    164 C          -41.6857   -39.3974   -20.8811 C       1      m1    -0.1060
    165 C          -41.7741   -38.3365   -21.9831 C       1      m1    -0.1590
    166 C          -42.6714   -43.6333   -23.5912 C       1      m1    -0.1590
    167 N          -42.3553   -44.8411   -21.1939 N       1      m1    -0.5801
    168 N          -42.3184   -40.8746   -23.3609 N       1      m1    -0.5801
    169 H          -41.5402   -41.1358   -19.0733 H       1      m1     0.1268
    170 H          -42.7269   -44.3479   -18.5472 H       1      m1     0.0530
    171 H          -40.9610   -44.5462   -18.8799 H       1      m1     0.0530
    172 H          -41.3605   -43.7425   -16.5682 H       1      m1     0.0530
    173 H          -40.4673   -42.5025   -17.4969 H       1      m1     0.0530
    174 H          -42.2401   -42.3035   -17.1629 H       1      m1     0.0530
    175 H          -42.4225   -39.0920   -20.0964 H       1      m1     0.0530
    176 H          -40.6690   -39.2888   -20.4266 H       1      m1     0.0530
    177 H          -41.5808   -37.3224   -21.5614 H       1      m1     0.0530
    178 H          -41.0024   -38.4896   -22.7717 H       1      m1     0.0530
    179 H          -42.7912   -38.2888   -22.4348 H       1      m1     0.0530
    180 H          -42.7796   -43.0384   -24.5185 H       1      m1     0.0530
    181 H          -41.8676   -44.3724   -23.8128 H       1      m1     0.0530
    182 H          -43.6391   -44.1739   -23.4789 H       1      m1     0.0530
    183 H          -42.5796   -45.3604   -22.0756 H       1      m1     0.2487
    184 H          -42.2564   -45.4185   -20.3251 H       1      m1     0.2487
    185 H          -42.2147   -39.8414   -23.4256 H       1      m1     0.2487
    186 H          -42.5414   -41.3205   -24.2789 H       1      m1     0.2487
    187 C           42.3716   -22.5665   -20.9019 C       1      m1     0.0000
    188 C           42.0112   -21.7779   -19.8625 C       1      m1     0.0827
    189 C           41.7190   -20.4728   -20.0532 C       1      m1     0.0000
    190 C           41.8021   -19.9986   -21.3113 C       1      m1    -0.1268
    191 C           42.1544   -20.7404   -22.3723 C       1      m1     0.0000
    192 C           42.4379   -22.0360   -22.1418 C       1      m1     0.0827
    193 C           42.2318   -20.1511   -23.7735 C       1      m1    -0.1060
    194 C           41.8917   -18.6637   -23.9468 C       1      m1    -0.1590
    195 C           41.2965   -19.4302   -19.0183 C       1      m1    -0.1060
    196 C           41.1329   -19.7311   -17.5249 C       1      m1    -0.1590
    197 C           42.7114   -24.0432   -20.7437 C       1      m1    -0.1590
    198 N           42.7750   -22.7661   -23.1250 N       1      m1    -0.5801
    199 N           41.9544   -22.2939   -18.7054 N       1      m1    -0.5801
    200 H           41.5641   -18.9354   -21.4668 H       1      m1     0.1268
    201 H           43.2717   -20.3004   -24.1544 H       1      m1     0.0530
    202 H           41.5373   -20.7292   -24.4307 H       1      m1     0.0530
    203 H           41.9872   -18.3617   -25.0157 H       1      m1     0.0530
    204 H           40.8428   -18.4419   -23.6439 H       1      m1     0.0530
    205 H           42.5839   -18.0115   -23.3666 H       1      m1     0.0530
    206 H           42.0362   -18.5935   -19.0872 H       1      m1     0.0530
    207 H           40.3140   -19.0191   -19.3615 H       1      m1     0.0530
    208 H           40.8185   -18.8124   -16.9764 H       1      m1     0.0530
    209 H           40.3349   -20.4852   -17.3368 H       1      m1     0.0530
    210 H           42.0919   -20.0508   -17.0569 H       1      m1     0.0530
    211 H           42.6531   -24.4649   -19.7218 H       1      m1     0.0530
    212 H           42.0170   -24.6649   -21.3541 H       1      m1     0.0530
    213 H           43.7570   -24.2349   -21.0774 H       1      m1     0.0530
    214 H           43.0073   -23.7811   -23.0091 H       1      m1     0.2487
    215 H           42.8351   -22.3824   -24.0982 H       1      m1     0.2487
    216 H           41.6871   -21.7622   -17.8519 H       1      m1     0.2487
    217 H           42.1712   -23.2969   -18.5099 H       1      m1     0.2487
    218 C          -42.1049    19.4341     0.3722 C       1      m1     0.0000
    219 C          -43.1460    20.2360     0.0476 C       1      m1     0.0827
    220 C          -42.9491    21.5392    -0.2487 C       1      m1     0.0000
    221 C          -41.6832    21.9979    -0.2065 C       1      m1    -0.1268
    222 C          -40.6202    21.2425     0.1093 C       1      m1     0.0000
    223 C          -40.8571    19.9493     0.3982 C       1      m1     0.0827
    224 C          -39.2101    21.8146     0.1412 C       1      m1    -0.1060
    225 C          -39.0300    23.3004    -0.2022 C       1      m1    -0.1590
    226 C          -43.9845    22.5952    -0.6350 C       1      m1    -0.1060
    227 C          -45.4861    22.3129    -0.7496 C       1      m1    -0.1590
    228 C          -42.2699    17.9588     0.7147 C       1      m1    -0.1590
    229 N          -39.8723    19.2066     0.7014 N       1      m1    -0.5801
    230 N          -44.3105    19.7343     0.0284 N       1      m1    -0.5801
    231 H          -41.5227    23.0596    -0.4479 H       1      m1     0.1268
    232 H          -38.7969    21.6586     1.1676 H       1      m1     0.0530
    233 H          -38.5834    21.2299    -0.5756 H       1      m1     0.0530
    234 H          -37.9549    23.5892    -0.1416 H       1      m1     0.0530
    235 H          -39.3647    23.5279    -1.2402 H       1      m1     0.0530
    236 H          -39.5789    23.9583     0.5099 H       1      m1     0.0530
    237 H          -43.8810    23.4295     0.1033 H       1      m1     0.0530
    238 H          -43.6691    23.0040    -1.6277 H       1      m1     0.0530
    239 H          -46.0334    23.2388    -1.0442 H       1      m1     0.0530
    240 H          -45.7097    21.5627    -1.5421 H       1      m1     0.0530
    241 H          -45.9260    21.9970     0.2239 H       1      m1     0.0530
    242 H          -43.2982    17.5496     0.6897 H       1      m1     0.0530
    243 H          -41.6904    17.3310    -0.0005 H       1      m1     0.0530
    244 H          -41.9041    17.7609     1.7484 H       1      m1     0.0530
    245 H          -39.9929    18.1927     0.9358 H       1      m1     0.2487
    246 H          -38.8930    19.5783     0.7298 H       1      m1     0.2487
    247 H          -45.1658    20.2769    -0.2097 H       1      m1     0.2487
    248 H          -44.5110    18.7333     0.2500 H       1      m1     0.2487
    249 C          -22.2507    41.8105    19.9992 C       1      m1     0.0000
    250 C          -21.1058    42.4722    19.7096 C       1      m1     0.0827
    251 C          -20.1154    42.5733    20.6229 C       1      m1     0.0000
    252 C          -20.3182    41.9919    21.8210 C       1      m1    -0.1268
    253 C          -21.4345    41.3262    22.1540 C       1      m1     0.0000
    254 C          -22.3981    41.2472    21.2174 C       1      m1     0.0827
    255 C          -21.6096    40.6880    23.5247 C       1      m1    -0.1060
    256 C          -20.4600    40.8261    24.5332 C       1      m1    -0.1590
    257 C          -18.7625    43.2716    20.4873 C       1      m1    -0.1060
    258 C          -18.3048    44.0019    19.2205 C       1      m1    -0.1590
    259 C          -23.3984    41.6662    19.0078 C       1      m1    -0.1590
    260 N          -23.4680    40.6238    21.5007 N       1      m1    -0.5801
    261 N          -20.9854    42.9947    18.5603 N       1      m1    -0.5801
    262 H          -19.5115    42.0742    22.5650 H       1      m1     0.1268
    263 H          -22.5209    41.1290    23.9975 H       1      m1     0.0530
    264 H          -21.7920    39.5955    23.3767 H       1      m1     0.0530
    265 H          -20.7158    40.3165    25.4913 H       1      m1     0.0530
    266 H          -19.5233    40.3530    24.1591 H       1      m1     0.0530
    267 H          -20.2551    41.8924    24.7824 H       1      m1     0.0530
    268 H          -18.7054    44.0215    21.3158 H       1      m1     0.0530
    269 H          -17.9814    42.4990    20.6994 H       1      m1     0.0530
    270 H          -17.2846    44.4282    19.3660 H       1      m1     0.0530
    271 H          -18.2248    43.3134    18.3485 H       1      m1     0.0530
    272 H          -18.9634    44.8669    18.9774 H       1      m1     0.0530
    273 H          -23.2642    42.1331    18.0131 H       1      m1     0.0530
    274 H          -23.5927    40.5891    18.7989 H       1      m1     0.0530
    275 H          -24.3244    42.1272    19.4220 H       1      m1     0.0530
    276 H          -24.2534    40.5282    20.8141 H       1      m1     0.2487
    277 H          -23.6108    40.1766    22.4375 H       1      m1     0.2487
    278 H          -20.1413    43.5202    18.2539 H       1      m1     0.2487
    279 H          -21.7234    42.9424    17.8229 H       1      m1     0.2487
    280 C           41.5288    42.7862     1.3272 C       1      m1     0.0000
    281 C           41.1955    43.1175     0.0578 C       1      m1     0.0827
    282 C           41.6453    42.3897    -0.9878 C       1      m1     0.0000
    283 C           42.4316    41.3315    -0.7111 C       1      m1    -0.1268
    284 C           42.7886    40.9643     0.5290 C       1      m1     0.0000
    285 C           42.3205    41.7142     1.5441 C       1      m1     0.0827
    286 C           43.6807    39.7575     0.7831 C       1      m1    -0.1060
    287 C           44.1701    38.9575    -0.4328 C       1      m1    -0.1590
    288 C           41.3825    42.6010    -2.4787 C       1      m1    -0.1060
    289 C           40.5193    43.7366    -3.0381 C       1      m1    -0.1590
    290 C           41.0500    43.5712     2.5420 C       1      m1    -0.1590
    291 N           42.6400    41.3936     2.7310 N       1      m1    -0.5801
    292 N           40.4509    44.1274    -0.1263 N       1      m1    -0.5801
    293 H           42.7980    40.7385    -1.5628 H       1      m1     0.1268
    294 H           44.5862    40.1073     1.3366 H       1      m1     0.0530
    295 H           43.1243    39.0493     1.4445 H       1      m1     0.0530
    296 H           44.8110    38.1048    -0.1088 H       1      m1     0.0530
    297 H           43.3220    38.5201    -1.0079 H       1      m1     0.0530
    298 H           44.7897    39.5823    -1.1161 H       1      m1     0.0530
    299 H           42.3835    42.7018    -2.9685 H       1      m1     0.0530
    300 H           40.9319    41.6512    -2.8616 H       1      m1     0.0530
    301 H           40.4782    43.6801    -4.1511 H       1      m1     0.0530
    302 H           39.4631    43.6667    -2.6913 H       1      m1     0.0530
    303 H           40.9440    44.7386    -2.8004 H       1      m1     0.0530
    304 H           40.4018    44.4477     2.3495 H       1      m1     0.0530
    305 H           40.4549    42.9125     3.2152 H       1      m1     0.0530
    306 H           41.9216    43.9737     3.1074 H       1      m1     0.0530
    307 H           42.3072    41.9379     3.5619 H       1      m1     0.2487
    308 H           43.2528    40.5672     2.9300 H       1      m1     0.2487
    309 H           40.1463    44.4527    -1.0665 H       1      m1     0.2487
    310 H           40.0797    44.7194     0.6502 H       1      m1     0.2487
    311 O           47.0160   -38.6747   -37.3277 O       2      m2    -0.2660
    312 C           46.4534   -37.7001   -38.3788 C       2      m2     0.0270
    313 C           45.5293   -38.3400   -37.5477 C       2      m2     0.0800
    314 C           44.8097   -39.5886   -38.0466 C       2      m2     0.0270
    315 O           43.4965   -39.2437   -38.4374 O       2      m2    -0.1595
    316 C           42.6580   -40.2243   -38.9107 C       2      m2     0.0265
    317 C           41.4269   -39.8733   -39.3307 C       2      m2    -0.1268
    318 C           40.5451   -40.7625   -39.8111 C       2      m2    -0.1268
    319 C           40.8609   -42.0651   -39.8944 C       2      m2     0.0000
    320 C           42.0866   -42.4341   -39.4872 C       2      m2    -0.1268
    321 C           42.9606   -41.5346   -39.0085 C       2      m2    -0.1268
    322 C           39.8785   -43.0752   -40.4426 C       2      m2    -0.1060
    323 C           40.0464   -43.1814   -41.9415 C       2      m2     0.0000
    324 C           39.3392   -42.4049   -42.7782 C       2      m2    -0.1268
    325 C           39.5024   -42.5025   -44.1059 C       2      m2    -0.1268
    326 C           40.3691   -43.3657   -44.6705 C       2      m2     0.0265
    327 C           41.0733   -44.1347   -43.8155 C       2      m2    -0.1268
    328 C           40.9186   -44.0462   -42.4848 C       2      m2    -0.1268
    329 O           40.4699   -43.3958   -46.0408 O       2      m2    -0.1595
    330 C           41.3733   -44.2976   -46.6464 C       2      m2     0.0270
    331 C           41.3290   -44.1123   -48.1596 C       2      m2     0.0800
    332 C           40.6262   -45.0306   -48.9451 C       2      m2     0.0270
    333 O           42.1477   -45.2341   -48.8241 O       2      m2    -0.2660
    334 H           46.8009   -36.6974   -38.1326 H       2      m2     0.0530
    335 H           46.6892   -38.0920   -39.3668 H       2      m2     0.0530
    336 H           45.1161   -37.8272   -36.6732 H       2      m2     0.0530
    337 H           45.3393   -40.0376   -38.9180 H       2      m2     0.0530
    338 H           44.7664   -40.3200   -37.2063 H       2      m2     0.0530
    339 H           41.1315   -38.8110   -39.2790 H       2      m2     0.1268
    340 H           39.5526   -40.4150   -40.1426 H       2      m2     0.1268
    341 H           42.3841   -43.4943   -39.5490 H       2      m2     0.1268
    342 H           43.9457   -41.9159   -38.6962 H       2      m2     0.1268
    343 H           40.0285   -44.0690   -39.9620 H       2      m2     0.0530
    344 H           38.8347   -42.7831   -40.1848 H       2      m2     0.0530
    345 H           38.6169   -41.6761   -42.3744 H       2      m2     0.1268
    346 H           38.9030   -41.8476   -44.7618 H       2      m2     0.1268
    347 H           41.8083   -44.8681   -44.1829 H       2      m2     0.1268
    348 H           41.5219   -44.6952   -41.8279 H       2      m2     0.1268
    349 H           42.4092   -44.0717   -46.3019 H       2      m2     0.0530
    350 H           41.0924   -45.3369   -46.3596 H       2      m2     0.0530
    351 H           41.6147   -43.1357   -48.5633 H       2      m2     0.0530
    352 H           40.3970   -44.7927   -49.9831 H       2      m2     0.0530
    353 H           40.1312   -45.8915   -48.4991 H       2      m2     0.0530
    354 O           15.8812   -20.2220     5.5893 O       2      m2    -0.2660
    355 C           17.0691   -19.2537     5.7388 C       2      m2     0.0270
    356 C           16.3411   -19.1860     4.5473 C       2      m2     0.0800
    357 C           16.8526   -19.9200     3.3123 C       2      m2     0.0270
    358 O           17.4561   -18.9907     2.4357 O       2      m2    -0.1595
    359 C           17.9786   -19.4340     1.2444 C       2      m2     0.0265
    360 C           18.5991   -18.5471     0.4421 C       2      m2    -0.1268
    361 C           19.1414   -18.8918    -0.7352 C       2      m2    -0.1268
    362 C           19.0863   -20.1611    -1.1701 C       2      m2     0.0000
    363 C           18.4779   -21.0620    -0.3812 C       2      m2    -0.1268
    364 C           17.9392   -20.7047     0.7954 C       2      m2    -0.1268
    365 C           19.7019   -20.5632    -2.4913 C       2      m2    -0.1060
    366 C           21.1485   -20.9481    -2.2783 C       2      m2     0.0000
    367 C           22.1324   -20.0396    -2.3759 C       2      m2    -0.1268
    368 C           23.4114   -20.3911    -2.1771 C       2      m2    -0.1268
    369 C           23.7804   -21.6504    -1.8716 C       2      m2     0.0265
    370 C           22.7794   -22.5485    -1.7742 C       2      m2    -0.1268
    371 C           21.4955   -22.2087    -1.9710 C       2      m2    -0.1268
    372 O           25.1153   -21.9182    -1.6847 O       2      m2    -0.1595
    373 C           25.5167   -23.2349    -1.3660 C       2      m2     0.0270
    374 C           27.0290   -23.2654    -1.1711 C       2      m2     0.0800
    375 C           27.8438   -23.7713    -2.1881 C       2      m2     0.0270
    376 O           27.4856   -24.7296    -1.0372 O       2      m2    -0.2660
    377 H           16.8447   -18.5637     6.5514 H       2      m2     0.0530
    378 H           17.9818   -19.8431     5.8092 H       2      m2     0.0530
    379 H           15.5750   -18.4172     4.4040 H       2      m2     0.0530
    380 H           17.6029   -20.6965     3.5873 H       2      m2     0.0530
    381 H           15.9791   -20.3934     2.8066 H       2      m2     0.0530
    382 H           18.6657   -17.4942     0.7666 H       2      m2     0.1268
    383 H           19.6392   -18.1218    -1.3476 H       2      m2     0.1268
    384 H           18.4211   -22.1157    -0.7019 H       2      m2     0.1268
    385 H           17.4591   -21.5018     1.3849 H       2      m2     0.1268
    386 H           19.1364   -21.4084    -2.9465 H       2      m2     0.0530
    387 H           19.6219   -19.7310    -3.2277 H       2      m2     0.0530
    388 H           21.8914   -18.9916    -2.6195 H       2      m2     0.1268
    389 H           24.1926   -19.6164    -2.2660 H       2      m2     0.1268
    390 H           22.9823   -23.6021    -1.5255 H       2      m2     0.1268
    391 H           20.7132   -22.9804    -1.8757 H       2      m2     0.1268
    392 H           25.0396   -23.5459    -0.4076 H       2      m2     0.0530
    393 H           25.2029   -23.9170    -2.1890 H       2      m2     0.0530
    394 H           27.4531   -22.6544    -0.3678 H       2      m2     0.0530
    395 H           28.9184   -23.5944    -2.1606 H       2      m2     0.0530
    396 H           27.4170   -24.1689    -3.1072 H       2      m2     0.0530
    397 O           -5.6503   -36.8945    21.2382 O       2      m2    -0.2660
    398 C           -6.1572   -38.3419    21.3776 C       2      m2     0.0270
    399 C           -5.2146   -37.9065    22.3136 C       2      m2     0.0800
    400 C           -3.7415   -38.2434    22.1081 C       2      m2     0.0270
    401 O           -3.3856   -39.3125    22.9606 O       2      m2    -0.1595
    402 C           -2.0919   -39.7758    22.9512 C       2      m2     0.0265
    403 C           -1.7785   -40.8305    23.7288 C       2      m2    -0.1268
    404 C           -0.5433   -41.3511    23.7791 C       2      m2    -0.1268
    405 C            0.4507   -40.8309    23.0409 C       2      m2     0.0000
    406 C            0.1566   -39.7833    22.2536 C       2      m2    -0.1268
    407 C           -1.0837   -39.2712    22.2116 C       2      m2    -0.1268
    408 C            1.8447   -41.4150    23.0826 C       2      m2    -0.1060
    409 C            1.9654   -42.5089    22.0459 C       2      m2     0.0000
    410 C            1.6857   -43.7873    22.3467 C       2      m2    -0.1268
    411 C            1.7888   -44.7482    21.4165 C       2      m2    -0.1268
    412 C            2.1692   -44.4953    20.1490 C       2      m2     0.0265
    413 C            2.4426   -43.2061    19.8638 C       2      m2    -0.1268
    414 C            2.3431   -42.2357    20.7862 C       2      m2    -0.1268
    415 O            2.2462   -45.5434    19.2633 O       2      m2    -0.1595
    416 C            2.6459   -45.2931    17.9315 C       2      m2     0.0270
    417 C            2.6143   -46.5989    17.1441 C       2      m2     0.0800
    418 C            3.8112   -47.2692    16.8749 C       2      m2     0.0270
    419 O            3.2512   -46.3640    15.7622 O       2      m2    -0.2660
    420 H           -7.2185   -38.3081    21.6207 H       2      m2     0.0530
    421 H           -5.8560   -38.8949    20.4895 H       2      m2     0.0530
    422 H           -5.5283   -37.5717    23.3076 H       2      m2     0.0530
    423 H           -3.5397   -38.5404    21.0533 H       2      m2     0.0530
    424 H           -3.1418   -37.3420    22.3737 H       2      m2     0.0530
    425 H           -2.5697   -41.2863    24.3488 H       2      m2     0.1268
    426 H           -0.3476   -42.2172    24.4327 H       2      m2     0.1268
    427 H            0.9458   -39.3353    21.6268 H       2      m2     0.1268
    428 H           -1.2449   -38.4131    21.5402 H       2      m2     0.1268
    429 H            2.6074   -40.6227    22.9042 H       2      m2     0.0530
    430 H            2.0708   -41.8114    24.0990 H       2      m2     0.0530
    431 H            1.3652   -44.0550    23.3672 H       2      m2     0.1268
    432 H            1.5506   -45.7876    21.7015 H       2      m2     0.1268
    433 H            2.7583   -42.9013    18.8536 H       2      m2     0.1268
    434 H            2.5742   -41.1956    20.5011 H       2      m2     0.1268
    435 H            1.9269   -44.5865    17.4555 H       2      m2     0.0530
    436 H            3.6688   -44.8517    17.9385 H       2      m2     0.0530
    437 H            1.6524   -47.1114    17.0430 H       2      m2     0.0530
    438 H            3.7879   -48.2985    16.5190 H       2      m2     0.0530
    439 H            4.7692   -46.8627    17.1943 H       2      m2     0.0530
    440 O          -22.9849   -27.3359    -3.7370 O       2      m2    -0.2660
    441 C          -21.9363   -26.5054    -4.4999 C       2      m2     0.0270
    442 C          -21.6008   -26.9184    -3.2072 C       2      m2     0.0800
    443 C          -21.7879   -25.9557    -2.0393 C       2      m2     0.0270
    444 O          -20.5337   -25.4163    -1.6757 O       2      m2    -0.1595
    445 C          -20.4634   -24.5278    -0.6296 C       2      m2     0.0265
    446 C          -19.2703   -23.9795    -0.3277 C       2      m2    -0.1268
    447 C          -19.1099   -23.1010     0.6730 C       2      m2    -0.1268
    448 C          -20.1538   -22.7251     1.4295 C       2      m2     0.0000
    449 C          -21.3534   -23.2552     1.1397 C       2      m2    -0.1268
    450 C          -21.5014   -24.1335     0.1352 C       2      m2    -0.1268
    451 C          -19.9868   -21.7287     2.5544 C       2      m2    -0.1060
    452 C          -20.1726   -20.3268     2.0193 C       2      m2     0.0000
    453 C          -19.1319   -19.6128     1.5607 C       2      m2    -0.1268
    454 C          -19.3101   -18.3730     1.0810 C       2      m2    -0.1268
    455 C          -20.5189   -17.7803     1.0289 C       2      m2     0.0265
    456 C          -21.5528   -18.5128     1.4901 C       2      m2    -0.1268
    457 C          -21.3869   -19.7547     1.9726 C       2      m2    -0.1268
    458 O          -20.6062   -16.5065     0.5203 O       2      m2    -0.1595
    459 C          -21.8672   -15.8720     0.4615 C       2      m2     0.0270
    460 C          -21.7070   -14.4944    -0.1729 C       2      m2     0.0800
    461 C          -21.7037   -13.3580     0.6413 C       2      m2     0.0270
    462 O          -23.0346   -13.7262    -0.0401 O       2      m2    -0.2660
    463 H          -21.6022   -27.0865    -5.3587 H       2      m2     0.0530
    464 H          -22.3542   -25.5174    -4.6855 H       2      m2     0.0530
    465 H          -20.9676   -27.7972    -3.0485 H       2      m2     0.0530
    466 H          -22.4745   -25.1213    -2.3112 H       2      m2     0.0530
    467 H          -22.2063   -26.5320    -1.1816 H       2      m2     0.0530
    468 H          -18.3889   -24.2630    -0.9285 H       2      m2     0.1268
    469 H          -18.1088   -22.6834     0.8709 H       2      m2     0.1268
    470 H          -22.2353   -22.9633     1.7343 H       2      m2     0.1268
    471 H          -22.5171   -24.5220    -0.0400 H       2      m2     0.1268
    472 H          -20.7156   -21.9340     3.3717 H       2      m2     0.0530
    473 H          -18.9835   -21.8384     3.0263 H       2      m2     0.0530
    474 H          -18.1184   -20.0468     1.5741 H       2      m2     0.1268
    475 H          -18.4305   -17.8170     0.7130 H       2      m2     0.1268
    476 H          -22.5795   -18.1144     1.4852 H       2      m2     0.1268
    477 H          -22.2660   -20.3141     2.3343 H       2      m2     0.1268
    478 H          -22.5532   -16.4700    -0.1824 H       2      m2     0.0530
    479 H          -22.2807   -15.7947     1.4932 H       2      m2     0.0530
    480 H          -21.3346   -14.4456    -1.2011 H       2      m2     0.0530
    481 H          -21.3686   -12.4031     0.2381 H       2      m2     0.0530
    482 H          -21.8400   -13.4359     1.7185 H       2      m2     0.0530
    483 O           38.9848   -48.6564    44.1562 O       2      m2    -0.2660
    484 C           37.9483   -47.5177    44.1386 C       2      m2     0.0270
    485 C           38.6249   -47.7787    42.9435 C       2      m2     0.0800
    486 C           39.8373   -46.9335    42.5673 C       2      m2     0.0270
    487 O           39.4592   -45.9880    41.5879 O       2      m2    -0.1595
    488 C           40.4044   -45.1234    41.0900 C       2      m2     0.0265
    489 C           40.0194   -44.1913    40.1966 C       2      m2    -0.1268
    490 C           40.8726   -43.3049    39.6622 C       2      m2    -0.1268
    491 C           42.1713   -43.3115    40.0035 C       2      m2     0.0000
    492 C           42.5735   -44.2288    40.8984 C       2      m2    -0.1268
    493 C           41.7100   -45.1106    41.4266 C       2      m2    -0.1268
    494 C           43.1405   -42.3115    39.4145 C       2      m2    -0.1060
    495 C           43.1649   -41.0663    40.2718 C       2      m2     0.0000
    496 C           42.3369   -40.0374    40.0291 C       2      m2    -0.1268
    497 C           42.3621   -38.9410    40.8013 C       2      m2    -0.1268
    498 C           43.2006   -38.8076    41.8474 C       2      m2     0.0265
    499 C           44.0222   -39.8514    42.0786 C       2      m2    -0.1268
    500 C           44.0062   -40.9540    41.3127 C       2      m2    -0.1268
    501 O           43.1555   -37.6478    42.5834 O       2      m2    -0.1595
    502 C           44.0306   -37.4934    43.6819 C       2      m2     0.0270
    503 C           43.7612   -36.1510    44.3535 C       2      m2     0.0800
    504 C           44.6281   -35.0791    44.1214 C       2      m2     0.0270
    505 O           44.8519   -35.8932    45.4092 O       2      m2    -0.2660
    506 H           36.9640   -47.9518    44.3105 H       2      m2     0.0530
    507 H           38.2870   -46.7389    44.8198 H       2      m2     0.0530
    508 H           38.1576   -48.3803    42.1573 H       2      m2     0.0530
    509 H           40.2420   -46.3930    43.4535 H       2      m2     0.0530
    510 H           40.6137   -47.6135    42.1458 H       2      m2     0.0530
    511 H           38.9590   -44.1538    39.8925 H       2      m2     0.1268
    512 H           40.4982   -42.5631    38.9375 H       2      m2     0.1268
    513 H           43.6314   -44.2586    41.2091 H       2      m2     0.1268
    514 H           42.1170   -45.8301    42.1545 H       2      m2     0.1268
    515 H           44.1608   -42.7524    39.3380 H       2      m2     0.0530
    516 H           42.8536   -42.0611    38.3675 H       2      m2     0.0530
    517 H           41.6250   -40.0905    39.1887 H       2      m2     0.1268
    518 H           41.6664   -38.1157    40.5706 H       2      m2     0.1268
    519 H           44.7407   -39.8362    42.9132 H       2      m2     0.1268
    520 H           44.6962   -41.7823    41.5463 H       2      m2     0.1268
    521 H           43.8336   -38.2977    44.4284 H       2      m2     0.0530
    522 H           45.0816   -37.5579    43.3179 H       2      m2     0.0530
    523 H           42.7664   -35.9826    44.7782 H       2      m2     0.0530
    524 H           44.3309   -34.0702    44.4049 H       2      m2     0.0530
    525 H           45.5079   -35.1921    43.4903 H       2      m2     0.0530
    526 O           26.5781    16.7557    44.9864 O       2      m2    -0.2660
    527 C           26.0095    17.7741    45.9917 C       2      m2     0.0270
    528 C           25.1070    16.8687    45.4263 C       2      m2     0.0800
    529 C           24.2643    17.2970    44.2296 C       2      m2     0.0270
    530 O           22.9535    17.5933    44.6659 O       2      m2    -0.1595
    531 C           22.0138    17.9907    43.7453 C       2      m2     0.0265
    532 C           20.7829    18.3222    44.1815 C       2      m2    -0.1268
    533 C           19.8061    18.7245    43.3551 C       2      m2    -0.1268
    534 C           20.0206    18.8148    42.0325 C       2      m2     0.0000
    535 C           21.2437    18.4954    41.5786 C       2      m2    -0.1268
    536 C           22.2134    18.0943    42.4158 C       2      m2    -0.1268
    537 C           18.9298    19.2758    41.0923 C       2      m2    -0.1060
    538 C           18.9767    20.7815    40.9636 C       2      m2     0.0000
    539 C           18.2661    21.5729    41.7833 C       2      m2    -0.1268
    540 C           18.3217    22.9078    41.6647 C       2      m2    -0.1268
    541 C           19.0795    23.5245    40.7370 C       2      m2     0.0265
    542 C           19.7889    22.7147    39.9252 C       2      m2    -0.1268
    543 C           19.7414    21.3774    40.0341 C       2      m2    -0.1268
    544 O           19.0747    24.8980    40.6901 O       2      m2    -0.1595
    545 C           19.8630    25.5579    39.7209 C       2      m2     0.0270
    546 C           19.7186    27.0657    39.8982 C       2      m2     0.0800
    547 C           18.8948    27.7852    39.0277 C       2      m2     0.0270
    548 O           20.4026    27.7752    38.7154 O       2      m2    -0.2660
    549 H           26.4454    17.5670    46.9684 H       2      m2     0.0530
    550 H           26.1417    18.7720    45.5768 H       2      m2     0.0530
    551 H           24.7984    15.9723    45.9739 H       2      m2     0.0530
    552 H           24.6934    18.1997    43.7373 H       2      m2     0.0530
    553 H           24.2319    16.4468    43.5092 H       2      m2     0.0530
    554 H           20.5691    18.2620    45.2627 H       2      m2     0.1268
    555 H           18.8190    18.9856    43.7711 H       2      m2     0.1268
    556 H           21.4590    18.5659    40.4992 H       2      m2     0.1268
    557 H           23.1893    17.8515    41.9665 H       2      m2     0.1268
    558 H           19.0439    18.7953    40.0936 H       2      m2     0.0530
    559 H           17.9320    18.9447    41.4610 H       2      m2     0.0530
    560 H           17.6303    21.1257    42.5653 H       2      m2     0.1268
    561 H           17.7232    23.5254    42.3567 H       2      m2     0.1268
    562 H           20.4398    23.1266    39.1379 H       2      m2     0.1268
    563 H           20.3442    20.7592    39.3477 H       2      m2     0.1268
    564 H           20.9354    25.2943    39.8736 H       2      m2     0.0530
    565 H           19.5307    25.2380    38.7067 H       2      m2     0.0530
    566 H           20.0424    27.5017    40.8487 H       2      m2     0.0530
    567 H           18.6059    28.8062    39.2742 H       2      m2     0.0530
    568 H           18.3743    27.2929    38.2080 H       2      m2     0.0530
    569 O           24.9583   -48.4846   -21.5748 O       2      m2    -0.2660
    570 C           23.9019   -48.3382   -22.6856 C       2      m2     0.0270
    571 C           24.8554   -47.3216   -22.5785 C       2      m2     0.0800
    572 C           24.5086   -46.0439   -21.8214 C       2      m2     0.0270
    573 O           24.2193   -45.0179   -22.7486 O       2      m2    -0.1595
    574 C           23.8913   -43.7668   -22.2840 C       2      m2     0.0265
    575 C           23.5650   -42.8119   -23.1767 C       2      m2    -0.1268
    576 C           23.2280   -41.5657   -22.8130 C       2      m2    -0.1268
    577 C           23.2018   -41.2128   -21.5175 C       2      m2     0.0000
    578 C           23.5170   -42.1529   -20.6114 C       2      m2    -0.1268
    579 C           23.8524   -43.3971   -20.9879 C       2      m2    -0.1268
    580 C           22.8147   -39.8136   -21.0951 C       2      m2    -0.1060
    581 C           21.3170   -39.7405   -20.9012 C       2      m2     0.0000
    582 C           20.5001   -39.3979   -21.9104 C       2      m2    -0.1268
    583 C           19.1723   -39.3441   -21.7286 C       2      m2    -0.1268
    584 C           18.5879   -39.6264   -20.5479 C       2      m2     0.0265
    585 C           19.4228   -39.9719   -19.5470 C       2      m2    -0.1268
    586 C           20.7533   -40.0292   -19.7168 C       2      m2    -0.1268
    587 O           17.2191   -39.5454   -20.4548 O       2      m2    -0.1595
    588 C           16.5931   -39.8367   -19.2222 C       2      m2     0.0270
    589 C           15.0817   -39.7153   -19.3857 C       2      m2     0.0800
    590 C           14.4269   -38.5770   -18.9064 C       2      m2     0.0270
    591 O           14.4195   -39.8216   -17.9998 O       2      m2    -0.2660
    592 H           24.0483   -49.1457   -23.4021 H       2      m2     0.0530
    593 H           22.9243   -48.2462   -22.2154 H       2      m2     0.0530
    594 H           25.7287   -47.3034   -23.2384 H       2      m2     0.0530
    595 H           23.6234   -46.1944   -21.1618 H       2      m2     0.0530
    596 H           25.3957   -45.7534   -21.2118 H       2      m2     0.0530
    597 H           23.5737   -43.0648   -24.2511 H       2      m2     0.1268
    598 H           22.9677   -40.8273   -23.5893 H       2      m2     0.1268
    599 H           23.4980   -41.9017   -19.5377 H       2      m2     0.1268
    600 H           24.0965   -44.1107   -20.1851 H       2      m2     0.1268
    601 H           23.3438   -39.5264   -20.1576 H       2      m2     0.0530
    602 H           23.1483   -39.0707   -21.8554 H       2      m2     0.0530
    603 H           20.9201   -39.1596   -22.9016 H       2      m2     0.1268
    604 H           18.5330   -39.0583   -22.5819 H       2      m2     0.1268
    605 H           19.0379   -40.2233   -18.5462 H       2      m2     0.1268
    606 H           21.3928   -40.3214   -18.8668 H       2      m2     0.1268
    607 H           16.8245   -40.8869   -18.9282 H       2      m2     0.0530
    608 H           16.9726   -39.1301   -18.4488 H       2      m2     0.0530
    609 H           14.5898   -40.3832   -20.1001 H       2      m2     0.0530
    610 H           13.4011   -38.3729   -19.2111 H       2      m2     0.0530
    611 H           14.9726   -37.7863   -18.3945 H       2      m2     0.0530
    612 O           39.3953   -23.9930   -35.4957 O       2      m2    -0.2660
    613 C           38.3924   -24.1387   -36.6550 C       2      m2     0.0270
    614 C           39.6634   -24.6896   -36.8423 C       2      m2     0.0800
    615 C           40.7193   -23.8984   -37.6071 C       2      m2     0.0270
    616 O           40.8280   -24.4142   -38.9179 O       2      m2    -0.1595
    617 C           41.7361   -23.8558   -39.7853 C       2      m2     0.0265
    618 C           41.7921   -24.3209   -41.0486 C       2      m2    -0.1268
    619 C           42.6436   -23.8326   -41.9626 C       2      m2    -0.1268
    620 C           43.4919   -22.8401   -41.6484 C       2      m2     0.0000
    621 C           43.4465   -22.3578   -40.3957 C       2      m2    -0.1268
    622 C           42.5894   -22.8546   -39.4897 C       2      m2    -0.1268
    623 C           44.4500   -22.2756   -42.6729 C       2      m2    -0.1060
    624 C           43.7800   -21.1468   -43.4233 C       2      m2     0.0000
    625 C           43.0911   -21.3742   -44.5533 C       2      m2    -0.1268
    626 C           42.4942   -20.3660   -45.2061 C       2      m2    -0.1268
    627 C           42.5459   -19.0900   -44.7768 C       2      m2     0.0265
    628 C           43.2386   -18.8807   -43.6390 C       2      m2    -0.1268
    629 C           43.8403   -19.8816   -42.9767 C       2      m2    -0.1268
    630 O           41.9032   -18.1219   -45.5106 O       2      m2    -0.1595
    631 C           41.9509   -16.7793   -45.0732 C       2      m2     0.0270
    632 C           41.1360   -15.9115   -46.0266 C       2      m2     0.0800
    633 C           41.7957   -15.1269   -46.9771 C       2      m2     0.0270
    634 O           41.3651   -14.4307   -45.6729 O       2      m2    -0.2660
    635 H           37.5719   -24.7705   -36.3169 H       2      m2     0.0530
    636 H           38.1498   -23.1429   -37.0222 H       2      m2     0.0530
    637 H           39.8349   -25.7607   -36.6948 H       2      m2     0.0530
    638 H           40.4498   -22.8188   -37.6653 H       2      m2     0.0530
    639 H           41.6927   -24.0223   -37.0780 H       2      m2     0.0530
    640 H           41.1089   -25.1357   -41.3447 H       2      m2     0.1268
    641 H           42.6415   -24.2519   -42.9823 H       2      m2     0.1268
    642 H           44.1226   -21.5366   -40.1040 H       2      m2     0.1268
    643 H           42.6125   -22.4048   -38.4845 H       2      m2     0.1268
    644 H           45.3834   -21.9172   -42.1813 H       2      m2     0.0530
    645 H           44.7811   -23.0726   -43.3774 H       2      m2     0.0530
    646 H           43.0103   -22.3992   -44.9516 H       2      m2     0.1268
    647 H           41.9370   -20.5920   -46.1318 H       2      m2     0.1268
    648 H           43.3340   -17.8714   -43.2084 H       2      m2     0.1268
    649 H           44.3916   -19.6582   -42.0479 H       2      m2     0.1268
    650 H           41.4915   -16.7031   -44.0603 H       2      m2     0.0530
    651 H           43.0143   -16.4490   -45.0373 H       2      m2     0.0530
    652 H           40.0664   -16.1238   -46.1229 H       2      m2     0.0530
    653 H           41.2342   -14.6849   -47.7993 H       2      m2     0.0530
    654 H           42.8827   -15.1034   -47.0325 H       2      m2     0.0530
    655 O          -27.1276     3.5869    18.2369 O       2      m2    -0.2660
    656 C          -26.6285     2.4683    17.3037 C       2      m2     0.0270
    657 C          -26.9621     2.1026    18.6110 C       2      m2     0.0800
    658 C          -25.8616     1.9764    19.6592 C       2      m2     0.0270
    659 O          -25.5678     0.6095    19.8628 O       2      m2    -0.1595
    660 C          -24.6076     0.2593    20.7816 C       2      m2     0.0265
    661 C          -24.2987    -1.0440    20.9273 C       2      m2    -0.1268
    662 C          -23.3724    -1.4756    21.7960 C       2      m2    -0.1268
    663 C          -22.7021    -0.6078    22.5712 C       2      m2     0.0000
    664 C          -22.9907     0.6970    22.4357 C       2      m2    -0.1268
    665 C          -23.9198     1.1168    21.5623 C       2      m2    -0.1268
    666 C          -21.6495    -1.0818    23.5476 C       2      m2    -0.1060
    667 C          -20.3063    -1.1366    22.8554 C       2      m2     0.0000
    668 C          -19.8859    -2.2527    22.2385 C       2      m2    -0.1268
    669 C          -18.6957    -2.2870    21.6209 C       2      m2    -0.1268
    670 C          -17.8667    -1.2257    21.5803 C       2      m2     0.0265
    671 C          -18.3064    -0.1127    22.2016 C       2      m2    -0.1268
    672 C          -19.4956    -0.0663    22.8231 C       2      m2    -0.1268
    673 O          -16.6663    -1.3529    20.9234 O       2      m2    -0.1595
    674 C          -15.7862    -0.2486    20.8747 C       2      m2     0.0270
    675 C          -14.5516    -0.6261    20.0628 C       2      m2     0.0800
    676 C          -13.3614    -0.9395    20.7257 C       2      m2     0.0270
    677 O          -13.5068     0.4974    20.1916 O       2      m2    -0.2660
    678 H          -27.3568     2.3437    16.5031 H       2      m2     0.0530
    679 H          -25.5997     2.6910    17.0256 H       2      m2     0.0530
    680 H          -27.9339     1.6505    18.8336 H       2      m2     0.0530
    681 H          -24.9336     2.5004    19.3340 H       2      m2     0.0530
    682 H          -26.2389     2.4200    20.6098 H       2      m2     0.0530
    683 H          -24.8277    -1.7873    20.3060 H       2      m2     0.1268
    684 H          -23.1605    -2.5552    21.8688 H       2      m2     0.1268
    685 H          -22.4541     1.4395    23.0498 H       2      m2     0.1268
    686 H          -24.0979     2.2025    21.5094 H       2      m2     0.1268
    687 H          -21.6044    -0.4079    24.4336 H       2      m2     0.0530
    688 H          -21.9203    -2.0818    23.9575 H       2      m2     0.0530
    689 H          -20.5231    -3.1525    22.2346 H       2      m2     0.1268
    690 H          -18.3843    -3.2225    21.1248 H       2      m2     0.1268
    691 H          -17.6999     0.8065    22.2193 H       2      m2     0.1268
    692 H          -19.8111     0.8701    23.3134 H       2      m2     0.1268
    693 H          -16.2890     0.6035    20.3610 H       2      m2     0.0530
    694 H          -15.5113     0.0399    21.9151 H       2      m2     0.0530
    695 H          -14.6949    -0.9006    19.0128 H       2      m2     0.0530
    696 H          -12.5497    -1.4229    20.1833 H       2      m2     0.0530
    697 H          -13.2917    -0.8937    21.8111 H       2      m2     0.0530
    698 O           21.6262    19.2682    13.6070 O       2      m2    -0.2660
    699 C           21.0938    18.0913    14.4452 C       2      m2     0.0270
    700 C           20.3676    19.2848    14.4936 C       2      m2     0.0800
    701 C           20.5905    20.2527    15.6509 C       2      m2     0.0270
    702 O           19.5272    20.1279    16.5729 O       2      m2    -0.1595
    703 C           19.5160    20.9209    17.6953 C       2      m2     0.0265
    704 C           18.5254    20.7543    18.5932 C       2      m2    -0.1268
    705 C           18.4380    21.4804    19.7175 C       2      m2    -0.1268
    706 C           19.3534    22.4218    19.9988 C       2      m2     0.0000
    707 C           20.3531    22.5982    19.1193 C       2      m2    -0.1268
    708 C           20.4300    21.8649    17.9974 C       2      m2    -0.1268
    709 C           19.2702    23.2403    21.2674 C       2      m2    -0.1060
    710 C           20.0078    22.5271    22.3781 C       2      m2     0.0000
    711 C           19.3783    21.6599    23.1873 C       2      m2    -0.1268
    712 C           20.0448    21.0272    24.1642 C       2      m2    -0.1268
    713 C           21.3598    21.2167    24.3882 C       2      m2     0.0265
    714 C           21.9764    22.0879    23.5642 C       2      m2    -0.1268
    715 C           21.3200    22.7272    22.5830 C       2      m2    -0.1268
    716 O           21.9597    20.5240    25.4125 O       2      m2    -0.1595
    717 C           23.3375    20.7147    25.6600 C       2      m2     0.0270
    718 C           23.7703    19.8125    26.8110 C       2      m2     0.0800
    719 C           23.9513    20.3605    28.0842 C       2      m2     0.0270
    720 O           25.2101    20.1769    27.2166 O       2      m2    -0.2660
    721 H           20.7894    17.2986    13.7627 H       2      m2     0.0530
    722 H           21.8358    17.8515    15.2049 H       2      m2     0.0530
    723 H           19.4681    19.4162    13.8837 H       2      m2     0.0530
    724 H           21.5499    20.0389    16.1756 H       2      m2     0.0530
    725 H           20.6026    21.2876    15.2368 H       2      m2     0.0530
    726 H           17.7549    19.9886    18.3973 H       2      m2     0.1268
    727 H           17.6054    21.2968    20.4167 H       2      m2     0.1268
    728 H           21.1280    23.3566    19.3213 H       2      m2     0.1268
    729 H           21.2803    22.0687    17.3275 H       2      m2     0.1268
    730 H           19.6959    24.2572    21.1068 H       2      m2     0.0530
    731 H           18.2066    23.4127    21.5508 H       2      m2     0.0530
    732 H           18.3026    21.4606    23.0499 H       2      m2     0.1268
    733 H           19.4932    20.3216    24.8094 H       2      m2     0.1268
    734 H           23.0511    22.3057    23.6675 H       2      m2     0.1268
    735 H           21.8715    23.4274    21.9331 H       2      m2     0.1268
    736 H           23.9203    20.4227    24.7556 H       2      m2     0.0530
    737 H           23.5159    21.7878    25.9005 H       2      m2     0.0530
    738 H           23.6695    18.7306    26.6779 H       2      m2     0.0530
    739 H           24.0369    19.7044    28.9497 H       2      m2     0.0530
    740 H           23.8145    21.4253    28.2644 H       2      m2     0.0530
    741 O          -35.4272    -0.5776     3.8095 O       2      m2    -0.2660
    742 C          -36.2174     0.6892     4.1860 C       2      m2     0.0270
    743 C          -36.8644    -0.5377     4.3602 C       2      m2     0.0800
    744 C          -37.8206    -1.0416     3.2843 C       2      m2     0.0270
    745 O          -39.1514    -0.8243     3.7061 O       2      m2    -0.1595
    746 C          -40.1860    -1.2169     2.8911 C       2      m2     0.0265
    747 C          -41.4491    -0.9553     3.2803 C       2      m2    -0.1268
    748 C          -42.5183    -1.2982     2.5467 C       2      m2    -0.1268
    749 C          -42.3692    -1.9289     1.3705 C       2      m2     0.0000
    750 C          -41.1173    -2.1923     0.9615 C       2      m2    -0.1268
    751 C          -40.0549    -1.8438     1.7046 C       2      m2    -0.1268
    752 C          -43.5666    -2.3123     0.5306 C       2      m2    -0.1060
    753 C          -43.9207    -1.1706    -0.3953 C       2      m2     0.0000
    754 C          -44.7930    -0.2190    -0.0256 C       2      m2    -0.1268
    755 C          -45.0934     0.7934    -0.8525 C       2      m2    -0.1268
    756 C          -44.5486     0.9170    -2.0785 C       2      m2     0.0265
    757 C          -43.6724    -0.0451    -2.4317 C       2      m2    -0.1268
    758 C          -43.3638    -1.0632    -1.6128 C       2      m2    -0.1268
    759 O          -44.9156     1.9885    -2.8570 O       2      m2    -0.1595
    760 C          -44.3538     2.1295    -4.1456 C       2      m2     0.0270
    761 C          -44.8849     3.4068    -4.7879 C       2      m2     0.0800
    762 C          -45.8911     3.3238    -5.7548 C       2      m2     0.0270
    763 O          -44.4422     3.4457    -6.2619 O       2      m2    -0.2660
    764 H          -35.7174     1.1632     5.0298 H       2      m2     0.0530
    765 H          -36.3630     1.2802     3.2833 H       2      m2     0.0530
    766 H          -36.9122    -1.0084     5.3474 H       2      m2     0.0530
    767 H          -37.6568    -0.5100     2.3189 H       2      m2     0.0530
    768 H          -37.6469    -2.1350     3.1539 H       2      m2     0.0530
    769 H          -41.6116    -0.4366     4.2410 H       2      m2     0.1268
    770 H          -43.5283    -1.0549     2.9160 H       2      m2     0.1268
    771 H          -40.9559    -2.7015    -0.0035 H       2      m2     0.1268
    772 H          -39.0615    -2.0936     1.2998 H       2      m2     0.1268
    773 H          -43.3560    -3.2373    -0.0536 H       2      m2     0.0530
    774 H          -44.4325    -2.5717     1.1820 H       2      m2     0.0530
    775 H          -45.2684    -0.2646     0.9682 H       2      m2     0.1268
    776 H          -45.8152     1.5566    -0.5134 H       2      m2     0.1268
    777 H          -43.1732    -0.0277    -3.4133 H       2      m2     0.1268
    778 H          -42.6375    -1.8229    -1.9476 H       2      m2     0.1268
    779 H          -43.2462     2.2226    -4.0587 H       2      m2     0.0530
    780 H          -44.6162     1.2337    -4.7538 H       2      m2     0.0530
    781 H          -44.6627     4.3578    -4.2935 H       2      m2     0.0530
    782 H          -46.4318     4.2212    -6.0531 H       2      m2     0.0530
    783 H          -46.2847     2.3616    -6.0777 H       2      m2     0.0530
    784 O           17.8007    38.5750    -6.0068 O       2      m2    -0.2660
    785 C           19.3391    38.5607    -6.0703 C       2      m2     0.0270
    786 C           18.7448    37.9827    -4.9447 C       2      m2     0.0800
    787 C           18.6183    38.7966    -3.6612 C       2      m2     0.0270
    788 O           19.6178    38.3870    -2.7504 O       2      m2    -0.1595
    789 C           19.6831    38.9826    -1.5136 C       2      m2     0.0265
    790 C           20.6737    38.6214    -0.6749 C       2      m2    -0.1268
    791 C           20.8165    39.1530     0.5482 C       2      m2    -0.1268
    792 C           19.9599    40.0859     0.9948 C       2      m2     0.0000
    793 C           18.9693    40.4647     0.1705 C       2      m2    -0.1268
    794 C           18.8370    39.9254    -1.0518 C       2      m2    -0.1268
    795 C           20.1161    40.6988     2.3681 C       2      m2    -0.1060
    796 C           21.0192    41.9083     2.2818 C       2      m2     0.0000
    797 C           22.3472    41.7992     2.4484 C       2      m2    -0.1268
    798 C           23.1393    42.8781     2.3618 C       2      m2    -0.1268
    799 C           22.6622    44.1118     2.1057 C       2      m2     0.0265
    800 C           21.3273    44.2022     1.9378 C       2      m2    -0.1268
    801 C           20.5243    43.1296     2.0222 C       2      m2    -0.1268
    802 O           23.5493    45.1590     2.0344 O       2      m2    -0.1595
    803 C           23.0627    46.4585     1.7687 C       2      m2     0.0270
    804 C           24.2363    47.4300     1.7010 C       2      m2     0.0800
    805 C           24.5009    48.2665     2.7893 C       2      m2     0.0270
    806 O           23.6906    48.8677     1.6261 O       2      m2    -0.2660
    807 H           19.6387    37.9324    -6.9083 H       2      m2     0.0530
    808 H           19.6899    39.5913    -6.0561 H       2      m2     0.0530
    809 H           18.6160    36.8977    -4.8765 H       2      m2     0.0530
    810 H           18.7375    39.8860    -3.8618 H       2      m2     0.0530
    811 H           17.6130    38.5954    -3.2235 H       2      m2     0.0530
    812 H           21.3986    37.8583    -1.0074 H       2      m2     0.1268
    813 H           21.6493    38.8195     1.1891 H       2      m2     0.1268
    814 H           18.2518    41.2348     0.5000 H       2      m2     0.1268
    815 H           18.0000    40.2898    -1.6681 H       2      m2     0.1268
    816 H           19.1231    40.9824     2.7863 H       2      m2     0.0530
    817 H           20.5292    39.9513     3.0836 H       2      m2     0.0530
    818 H           22.7964    40.8140     2.6564 H       2      m2     0.1268
    819 H           24.2261    42.7488     2.5047 H       2      m2     0.1268
    820 H           20.8451    45.1686     1.7216 H       2      m2     0.1268
    821 H           19.4388    43.2562     1.8727 H       2      m2     0.1268
    822 H           22.5509    46.4671     0.7783 H       2      m2     0.0530
    823 H           22.3468    46.7471     2.5722 H       2      m2     0.0530
    824 H           24.9929    47.2642     0.9274 H       2      m2     0.0530
    825 H           25.4520    48.7942     2.8490 H       2      m2     0.0530
    826 H           23.8682    48.2562     3.6752 H       2      m2     0.0530
    827 O          -18.0885    36.4438   -46.3243 O       2      m2    -0.2660
    828 C          -17.3275    37.7732   -46.4814 C       2      m2     0.0270
    829 C          -17.4164    37.2413   -45.1917 C       2      m2     0.0800
    830 C          -18.4932    37.7535   -44.2409 C       2      m2     0.0270
    831 O          -17.9092    38.6462   -43.3145 O       2      m2    -0.1595
    832 C          -18.6991    39.2226   -42.3489 C       2      m2     0.0265
    833 C          -18.1413    40.1132   -41.5057 C       2      m2    -0.1268
    834 C          -18.8370    40.7269   -40.5370 C       2      m2    -0.1268
    835 C          -20.1445    40.4729   -40.3656 C       2      m2     0.0000
    836 C          -20.7208    39.5930   -41.2010 C       2      m2    -0.1268
    837 C          -20.0139    38.9853   -42.1670 C       2      m2    -0.1268
    838 C          -20.9411    41.1653   -39.2830 C       2      m2    -0.1060
    839 C          -21.5052    42.4609   -39.8210 C       2      m2     0.0000
    840 C          -20.8243    43.6135   -39.7163 C       2      m2    -0.1268
    841 C          -21.3314    44.7553   -40.2044 C       2      m2    -0.1268
    842 C          -22.5289    44.8149   -40.8189 C       2      m2     0.0265
    843 C          -23.1969    43.6479   -40.9184 C       2      m2    -0.1268
    844 C          -22.6998    42.4988   -40.4337 C       2      m2    -0.1268
    845 O          -22.9681    46.0296   -41.2885 O       2      m2    -0.1595
    846 C          -24.2229    46.1072   -41.9331 C       2      m2     0.0270
    847 C          -24.4630    47.5412   -42.3935 C       2      m2     0.0800
    848 C          -25.3220    48.3648   -41.6599 C       2      m2     0.0270
    849 O          -25.9115    47.6671   -42.8996 O       2      m2    -0.2660
    850 H          -16.4397    37.5872   -47.0847 H       2      m2     0.0530
    851 H          -18.0302    38.5284   -46.8294 H       2      m2     0.0530
    852 H          -16.5837    36.6746   -44.7628 H       2      m2     0.0530
    853 H          -19.3000    38.2856   -44.7954 H       2      m2     0.0530
    854 H          -18.9162    36.8778   -43.6958 H       2      m2     0.0530
    855 H          -17.0687    40.3490   -41.6166 H       2      m2     0.1268
    856 H          -18.3263    41.4491   -39.8788 H       2      m2     0.1268
    857 H          -21.7950    39.3660   -41.0956 H       2      m2     0.1268
    858 H          -20.5589    38.2779   -42.8118 H       2      m2     0.1268
    859 H          -21.7606    40.5057   -38.9162 H       2      m2     0.0530
    860 H          -20.3017    41.3567   -38.3908 H       2      m2     0.0530
    861 H          -19.8364    43.6265   -39.2268 H       2      m2     0.1268
    862 H          -20.7424    45.6828   -40.0994 H       2      m2     0.1268
    863 H          -24.1825    43.5962   -41.4073 H       2      m2     0.1268
    864 H          -23.2842    41.5699   -40.5441 H       2      m2     0.1268
    865 H          -24.2172    45.4523   -42.8352 H       2      m2     0.0530
    866 H          -25.0145    45.7743   -41.2232 H       2      m2     0.0530
    867 H          -23.7629    47.9691   -43.1181 H       2      m2     0.0530
    868 H          -25.3281    49.4392   -41.8399 H       2      m2     0.0530
    869 H          -25.8441    47.9933   -40.7799 H       2      m2     0.0530
    870 O            7.2088     0.0361    44.4657 O       2      m2    -0.2660
    871 C            7.1087    -0.1409    42.9393 C       2      m2     0.0270
    872 C            6.5164     1.0012    43.4861 C       2      m2     0.0800
    873 C            5.0185     1.0063    43.7723 C       2      m2     0.0270
    874 O            4.3537     1.7318    42.7584 O       2      m2    -0.1595
    875 C            2.9886     1.8767    42.8223 C       2      m2     0.0265
    876 C            2.3608     2.5242    41.8213 C       2      m2    -0.1268
    877 C            1.0324     2.7080    41.7992 C       2      m2    -0.1268
    878 C            0.2592     2.2443    42.7944 C       2      m2     0.0000
    879 C            0.8656     1.5896    43.7983 C       2      m2    -0.1268
    880 C            2.1961     1.4116    43.8091 C       2      m2    -0.1268
    881 C           -1.2403     2.4377    42.7758 C       2      m2    -0.1060
    882 C           -1.8899     1.2812    42.0500 C       2      m2     0.0000
    883 C           -2.1137     1.3269    40.7268 C       2      m2    -0.1268
    884 C           -2.6836     0.2916    40.0924 C       2      m2    -0.1268
    885 C           -3.0569    -0.8354    40.7295 C       2      m2     0.0265
    886 C           -2.8213    -0.8653    42.0568 C       2      m2    -0.1268
    887 C           -2.2518     0.1646    42.7028 C       2      m2    -0.1268
    888 O           -3.6332    -1.8455    39.9971 O       2      m2    -0.1595
    889 C           -4.0314    -3.0321    40.6526 C       2      m2     0.0270
    890 C           -4.6015    -4.0054    39.6262 C       2      m2     0.0800
    891 C           -5.9867    -4.1621    39.5217 C       2      m2     0.0270
    892 O           -5.2272    -5.2016    40.3665 O       2      m2    -0.2660
    893 H            8.1143    -0.0845    42.5241 H       2      m2     0.0530
    894 H            6.5248    -1.0376    42.7384 H       2      m2     0.0530
    895 H            7.0354     1.9649    43.4627 H       2      m2     0.0530
    896 H            4.6105    -0.0301    43.8010 H       2      m2     0.0530
    897 H            4.8572     1.5089    44.7542 H       2      m2     0.0530
    898 H            2.9630     2.9184    40.9845 H       2      m2     0.1268
    899 H            0.5745     3.2436    40.9511 H       2      m2     0.1268
    900 H            0.2615     1.1872    44.6287 H       2      m2     0.1268
    901 H            2.6175     0.8635    44.6665 H       2      m2     0.1268
    902 H           -1.6381     2.5200    43.8132 H       2      m2     0.0530
    903 H           -1.5025     3.4041    42.2872 H       2      m2     0.0530
    904 H           -1.8258     2.2218    40.1507 H       2      m2     0.1268
    905 H           -2.8517     0.3661    39.0041 H       2      m2     0.1268
    906 H           -3.0891    -1.7454    42.6626 H       2      m2     0.1268
    907 H           -2.0768     0.0887    43.7892 H       2      m2     0.1268
    908 H           -3.1422    -3.5109    41.1246 H       2      m2     0.0530
    909 H           -4.7877    -2.7783    41.4304 H       2      m2     0.0530
    910 H           -3.9386    -4.3510    38.8266 H       2      m2     0.0530
    911 H           -6.4111    -4.6716    38.6574 H       2      m2     0.0530
    912 H           -6.6664    -3.6213    40.1780 H       2      m2     0.0530
    913 O          -42.7512    23.0400   -49.3022 O       2      m2    -0.2660
    914 C          -44.0090    22.3420   -48.7527 C       2      m2     0.0270
    915 C          -43.5758    23.4896   -48.0822 C       2      m2     0.0800
    916 C          -42.7204    23.3482   -46.8276 C       2      m2     0.0270
    917 O          -43.5261    23.5687   -45.6881 O       2      m2    -0.1595
    918 C          -42.9550    23.5030   -44.4398 C       2      m2     0.0265
    919 C          -43.7446    23.6616   -43.3597 C       2      m2    -0.1268
    920 C          -43.2739    23.6088   -42.1049 C       2      m2    -0.1268
    921 C          -41.9697    23.3911   -41.8703 C       2      m2     0.0000
    922 C          -41.1670    23.2234   -42.9341 C       2      m2    -0.1268
    923 C          -41.6501    23.2781   -44.1855 C       2      m2    -0.1268
    924 C          -41.4292    23.3206   -40.4600 C       2      m2    -0.1060
    925 C          -41.5147    21.8973   -39.9568 C       2      m2     0.0000
    926 C          -42.5998    21.4546   -39.3012 C       2      m2    -0.1268
    927 C          -42.6676    20.1876   -38.8663 C       2      m2    -0.1268
    928 C          -41.6733    19.2988   -39.0579 C       2      m2     0.0265
    929 C          -40.5933    19.7594   -39.7209 C       2      m2    -0.1268
    930 C          -40.5138    21.0253   -40.1610 C       2      m2    -0.1268
    931 O          -41.8310    18.0209   -38.5775 O       2      m2    -0.1595
    932 C          -40.7955    17.0790   -38.7694 C       2      m2     0.0270
    933 C          -41.2236    15.7364   -38.1863 C       2      m2     0.0800
    934 C          -40.7168    15.3309   -36.9482 C       2      m2     0.0270
    935 O          -40.0193    14.7775   -38.2045 O       2      m2    -0.2660
    936 H          -44.7944    22.4167   -49.5038 H       2      m2     0.0530
    937 H          -43.7246    21.3482   -48.4108 H       2      m2     0.0530
    938 H          -44.0480    24.4589   -48.2721 H       2      m2     0.0530
    939 H          -42.2700    22.3314   -46.7598 H       2      m2     0.0530
    940 H          -41.9177    24.1208   -46.8692 H       2      m2     0.0530
    941 H          -44.8230    23.8408   -43.5126 H       2      m2     0.1268
    942 H          -43.9696    23.7431   -41.2601 H       2      m2     0.1268
    943 H          -40.0915    23.0341   -42.7797 H       2      m2     0.1268
    944 H          -40.9283    23.1294   -45.0041 H       2      m2     0.1268
    945 H          -40.3766    23.6841   -40.4247 H       2      m2     0.0530
    946 H          -41.9958    24.0078   -39.7907 H       2      m2     0.0530
    947 H          -43.4477    22.1352   -39.1180 H       2      m2     0.1268
    948 H          -43.5758    19.8602   -38.3312 H       2      m2     0.1268
    949 H          -39.7312    19.1060   -39.9280 H       2      m2     0.1268
    950 H          -39.6097    21.3519   -40.7019 H       2      m2     0.1268
    951 H          -40.6191    16.9397   -39.8614 H       2      m2     0.0530
    952 H          -39.8697    17.4552   -38.2769 H       2      m2     0.0530
    953 H          -42.1080    15.2526   -38.6132 H       2      m2     0.0530
    954 H          -41.1777    14.4968   -36.4205 H       2      m2     0.0530
    955 H          -40.0009    15.9443   -36.4038 H       2      m2     0.0530
    956 O           -1.5332    24.6920    48.4859 O       2      m2    -0.2660
    957 C           -2.8075    24.2955    47.7178 C       2      m2     0.0270
    958 C           -1.9308    23.2645    48.0678 C       2      m2     0.0800
    959 C           -0.9265    22.7520    47.0409 C       2      m2     0.0270
    960 O           -1.3902    21.5286    46.5074 O       2      m2    -0.1595
    961 C           -0.6305    20.8764    45.5661 C       2      m2     0.0265
    962 C           -1.1092    19.7388    45.0258 C       2      m2    -0.1268
    963 C           -0.4382    19.0395    44.0986 C       2      m2    -0.1268
    964 C            0.7624    19.4542    43.6627 C       2      m2     0.0000
    965 C            1.2538    20.5904    44.1841 C       2      m2    -0.1268
    966 C            0.5724    21.2817    45.1115 C       2      m2    -0.1268
    967 C            1.5240    18.6792    42.6113 C       2      m2    -0.1060
    968 C            1.1212    19.1627    41.2365 C       2      m2     0.0000
    969 C            0.1047    18.5939    40.5684 C       2      m2    -0.1268
    970 C           -0.2486    19.0366    39.3526 C       2      m2    -0.1268
    971 C            0.3796    20.0591    38.7401 C       2      m2     0.0265
    972 C            1.3952    20.6205    39.4268 C       2      m2    -0.1268
    973 C            1.7581    20.1862    40.6442 C       2      m2    -0.1268
    974 O           -0.0521    20.4451    37.4937 O       2      m2    -0.1595
    975 C            0.5989    21.5145    36.8388 C       2      m2     0.0270
    976 C           -0.0844    21.7740    35.5003 C       2      m2     0.0800
    977 C            0.5125    21.3150    34.3225 C       2      m2     0.0270
    978 O            0.7535    22.7881    34.7004 O       2      m2    -0.2660
    979 H           -3.6672    24.5145    48.3501 H       2      m2     0.0530
    980 H           -2.7691    24.7583    46.7331 H       2      m2     0.0530
    981 H           -2.1222    22.6440    48.9491 H       2      m2     0.0530
    982 H           -0.7936    23.4811    46.2090 H       2      m2     0.0530
    983 H            0.0444    22.5846    47.5625 H       2      m2     0.0530
    984 H           -2.0940    19.3670    45.3580 H       2      m2     0.1268
    985 H           -0.8825    18.1165    43.6907 H       2      m2     0.1268
    986 H            2.2333    20.9662    43.8438 H       2      m2     0.1268
    987 H            1.0421    22.2038    45.4889 H       2      m2     0.1268
    988 H            2.6224    18.7934    42.7586 H       2      m2     0.0530
    989 H            1.3296    17.5871    42.7153 H       2      m2     0.0530
    990 H           -0.4500    17.7552    41.0206 H       2      m2     0.1268
    991 H           -1.0893    18.5437    38.8342 H       2      m2     0.1268
    992 H            1.9665    21.4645    39.0092 H       2      m2     0.1268
    993 H            2.5935    20.6823    41.1663 H       2      m2     0.1268
    994 H            0.5078    22.4379    37.4568 H       2      m2     0.0530
    995 H            1.6726    21.2519    36.6987 H       2      m2     0.0530
    996 H           -1.1382    22.0700    35.5135 H       2      m2     0.0530
    997 H           -0.0617    21.2914    33.3971 H       2      m2     0.0530
    998 H            1.4704    20.7981    34.3403 H       2      m2     0.0530
    999 O           49.5006    41.6827    22.2993 O       2      m2    -0.2660
   1000 C           49.1629    41.7054    20.7971 C       2      m2     0.0270
   1001 C           48.6901    42.7699    21.5702 C       2      m2     0.0800
   1002 C           47.2544    42.7448    22.0840 C       2      m2     0.0270
   1003 O           46.4600    43.5986    21.2865 O       2      m2    -0.1595
   1004 C           45.1249    43.7404    21.5798 C       2      m2     0.0265
   1005 C           44.3670    44.5150    20.7792 C       2      m2    -0.1268
   1006 C           43.0559    44.7064    20.9874 C       2      m2    -0.1268
   1007 C           42.4335    44.1212    22.0236 C       2      m2     0.0000
   1008 C           43.1704    43.3392    22.8294 C       2      m2    -0.1268
   1009 C           44.4821    43.1551    22.6104 C       2      m2    -0.1268
   1010 C           40.9542    44.3224    22.2630 C       2      m2    -0.1060
   1011 C           40.1725    43.2727    21.5059 C       2      m2     0.0000
   1012 C           39.7493    43.4905    20.2502 C       2      m2    -0.1268
   1013 C           39.0633    42.5488    19.5856 C       2      m2    -0.1268
   1014 C           38.7646    41.3506    20.1243 C       2      m2     0.0265
   1015 C           39.2004    41.1478    21.3841 C       2      m2    -0.1268
   1016 C           39.8876    42.0826    22.0595 C       2      m2    -0.1268
   1017 O           38.0579    40.4465    19.3679 O       2      m2    -0.1595
   1018 C           37.7358    39.1869    19.9209 C       2      m2     0.0270
   1019 C           36.9910    38.3574    18.8802 C       2      m2     0.0800
   1020 C           35.6027    38.2220    18.9732 C       2      m2     0.0270
   1021 O           36.4571    37.0783    19.5504 O       2      m2    -0.2660
   1022 H           50.0939    41.8105    20.2413 H       2      m2     0.0530
   1023 H           48.5331    40.8451    20.5770 H       2      m2     0.0530
   1024 H           49.2229    43.7260    21.5893 H       2      m2     0.0530
   1025 H           46.8302    41.7153    22.0437 H       2      m2     0.0530
   1026 H           47.2583    43.1166    23.1350 H       2      m2     0.0530
   1027 H           44.8431    45.0115    19.9161 H       2      m2     0.1268
   1028 H           42.4866    45.3495    20.2960 H       2      m2     0.1268
   1029 H           42.6913    42.8354    23.6856 H       2      m2     0.1268
   1030 H           45.0165    42.4985    23.3152 H       2      m2     0.1268
   1031 H           40.7225    44.2715    23.3516 H       2      m2     0.0530
   1032 H           40.6440    45.3451    21.9482 H       2      m2     0.0530
   1033 H           39.9673    44.4512    19.7550 H       2      m2     0.1268
   1034 H           38.7320    42.7645    18.5551 H       2      m2     0.1268
   1035 H           39.0071    40.1979    21.9071 H       2      m2     0.1268
   1036 H           40.2254    41.8658    23.0869 H       2      m2     0.1268
   1037 H           38.6749    38.6468    20.1841 H       2      m2     0.0530
   1038 H           37.1145    39.3413    20.8327 H       2      m2     0.0530
   1039 H           37.5145    38.1153    17.9498 H       2      m2     0.0530
   1040 H           35.0382    37.8308    18.1277 H       2      m2     0.0530
   1041 H           35.0455    38.6764    19.7906 H       2      m2     0.0530
   1042 O          -48.1245     2.7920   -24.5698 O       2      m2    -0.2660
   1043 C          -47.7996     3.5548   -23.2723 C       2      m2     0.0270
   1044 C          -46.7934     3.4923   -24.2407 C       2      m2     0.0800
   1045 C          -45.6975     2.4389   -24.1176 C       2      m2     0.0270
   1046 O          -44.5213     3.0470   -23.6245 O       2      m2    -0.1595
   1047 C          -43.3943     2.2810   -23.4460 C       2      m2     0.0265
   1048 C          -42.2957     2.8610   -22.9245 C       2      m2    -0.1268
   1049 C          -41.1543     2.1895   -22.7119 C       2      m2    -0.1268
   1050 C          -41.0592     0.8850   -23.0166 C       2      m2     0.0000
   1051 C          -42.1462     0.2867   -23.5311 C       2      m2    -0.1268
   1052 C          -43.2832     0.9696   -23.7390 C       2      m2    -0.1268
   1053 C          -39.7807     0.1155   -22.7731 C       2      m2    -0.1060
   1054 C          -39.7933    -0.4549   -21.3729 C       2      m2     0.0000
   1055 C          -39.2881     0.2329   -20.3361 C       2      m2    -0.1268
   1056 C          -39.3119    -0.2801   -19.0971 C       2      m2    -0.1268
   1057 C          -39.8350    -1.4907   -18.8212 C       2      m2     0.0265
   1058 C          -40.3410    -2.1656   -19.8732 C       2      m2    -0.1268
   1059 C          -40.3227    -1.6626   -21.1178 C       2      m2    -0.1268
   1060 O          -39.8164    -1.9350   -17.5208 O       2      m2    -0.1595
   1061 C          -40.3596    -3.2035   -17.2174 C       2      m2     0.0270
   1062 C          -40.2563    -3.4477   -15.7155 C       2      m2     0.0800
   1063 C          -39.2530    -4.2868   -15.2222 C       2      m2     0.0270
   1064 O          -40.6489    -4.9065   -15.4188 O       2      m2    -0.2660
   1065 H          -48.4486     4.4283   -23.2202 H       2      m2     0.0530
   1066 H          -47.8307     2.8478   -22.4450 H       2      m2     0.0530
   1067 H          -46.6209     4.3319   -24.9216 H       2      m2     0.0530
   1068 H          -46.0000     1.6223   -23.4226 H       2      m2     0.0530
   1069 H          -45.5025     2.0244   -25.1339 H       2      m2     0.0530
   1070 H          -42.3361     3.9319   -22.6599 H       2      m2     0.1268
   1071 H          -40.2885     2.7176   -22.2794 H       2      m2     0.1268
   1072 H          -42.1077    -0.7858   -23.7855 H       2      m2     0.1268
   1073 H          -44.1303     0.4075   -24.1628 H       2      m2     0.1268
   1074 H          -39.6635    -0.6984   -23.5248 H       2      m2     0.0530
   1075 H          -38.8949     0.7753   -22.9197 H       2      m2     0.0530
   1076 H          -38.8499     1.2314   -20.4995 H       2      m2     0.1268
   1077 H          -38.8869     0.3150   -18.2703 H       2      m2     0.1268
   1078 H          -40.7928    -3.1620   -19.7461 H       2      m2     0.1268
   1079 H          -40.7533    -2.2533   -21.9440 H       2      m2     0.1268
   1080 H          -41.4390    -3.2205   -17.4957 H       2      m2     0.0530
   1081 H          -39.8041    -3.9806   -17.7909 H       2      m2     0.0530
   1082 H          -40.7888    -2.7621   -15.0486 H       2      m2     0.0530
   1083 H          -39.0261    -4.2924   -14.1567 H       2      m2     0.0530
   1084 H          -38.5594    -4.7909   -15.8928 H       2      m2     0.0530
   1085 O          -27.2218    45.7185   -23.3473 O       2      m2    -0.2660
   1086 C          -27.5369    44.6616   -22.2726 C       2      m2     0.0270
   1087 C          -26.6091    45.6518   -21.9364 C       2      m2     0.0800
   1088 C          -25.1181    45.3557   -22.0581 C       2      m2     0.0270
   1089 O          -24.5887    45.0982   -20.7736 O       2      m2    -0.1595
   1090 C          -23.2495    44.8182   -20.6438 C       2      m2     0.0265
   1091 C          -22.7679    44.5214   -19.4210 C       2      m2    -0.1268
   1092 C          -21.4767    44.2317   -19.2023 C       2      m2    -0.1268
   1093 C          -20.5943    44.2257   -20.2146 C       2      m2     0.0000
   1094 C          -21.0564    44.5121   -21.4428 C       2      m2    -0.1268
   1095 C          -22.3512    44.8002   -21.6491 C       2      m2    -0.1268
   1096 C          -19.1382    43.8918   -19.9816 C       2      m2    -0.1060
   1097 C          -18.9356    42.3988   -20.1086 C       2      m2     0.0000
   1098 C          -19.0383    41.5890   -19.0424 C       2      m2    -0.1268
   1099 C          -18.8643    40.2650   -19.1686 C       2      m2    -0.1268
   1100 C          -18.5837    39.6777   -20.3482 C       2      m2     0.0265
   1101 C          -18.4878    40.5054   -21.4084 C       2      m2    -0.1268
   1102 C          -18.6598    41.8320   -21.2945 C       2      m2    -0.1268
   1103 O          -18.4224    38.3133   -20.3824 O       2      m2    -0.1595
   1104 C          -18.1257    37.6843   -21.6123 C       2      m2     0.0270
   1105 C          -18.0349    36.1773   -21.3964 C       2      m2     0.0800
   1106 C          -16.7794    35.5668   -21.3253 C       2      m2     0.0270
   1107 O          -17.5039    35.5198   -22.6832 O       2      m2    -0.2660
   1108 H          -28.5804    44.7747   -21.9807 H       2      m2     0.0530
   1109 H          -27.2152    43.6907   -22.6455 H       2      m2     0.0530
   1110 H          -26.9107    46.5213   -21.3437 H       2      m2     0.0530
   1111 H          -24.9352    44.4694   -22.7080 H       2      m2     0.0530
   1112 H          -24.6223    46.2561   -22.4896 H       2      m2     0.0530
   1113 H          -23.4636    44.5148   -18.5640 H       2      m2     0.1268
   1114 H          -21.1415    43.9937   -18.1792 H       2      m2     0.1268
   1115 H          -20.3622    44.5083   -22.2998 H       2      m2     0.1268
   1116 H          -22.6521    45.0231   -22.6850 H       2      m2     0.1268
   1117 H          -18.4901    44.4363   -20.7060 H       2      m2     0.0530
   1118 H          -18.8127    44.2476   -18.9772 H       2      m2     0.0530
   1119 H          -19.2703    42.0116   -18.0507 H       2      m2     0.1268
   1120 H          -18.9564    39.6316   -18.2694 H       2      m2     0.1268
   1121 H          -18.2647    40.1175   -22.4148 H       2      m2     0.1268
   1122 H          -18.5749    42.4654   -22.1936 H       2      m2     0.1268
   1123 H          -18.9505    37.8794   -22.3366 H       2      m2     0.0530
   1124 H          -17.1666    38.0935   -22.0048 H       2      m2     0.0530
   1125 H          -18.9295    35.6576   -21.0389 H       2      m2     0.0530
   1126 H          -16.6925    34.5473   -20.9514 H       2      m2     0.0530
   1127 H          -15.8642    36.1436   -21.4477 H       2      m2     0.0530
   1128 O           19.0274    20.8872   -49.3583 O       2      m2    -0.2660
   1129 C           20.3594    20.1614   -49.0938 C       2      m2     0.0270
   1130 C           19.2382    19.7049   -48.3948 C       2      m2     0.0800
   1131 C           18.9985    20.1821   -46.9663 C       2      m2     0.0270
   1132 O           19.3795    19.1626   -46.0653 O       2      m2    -0.1595
   1133 C           19.2360    19.3728   -44.7148 C       2      m2     0.0265
   1134 C           19.6531    18.4144   -43.8647 C       2      m2    -0.1268
   1135 C           19.5558    18.5362   -42.5325 C       2      m2    -0.1268
   1136 C           19.0279    19.6414   -41.9816 C       2      m2     0.0000
   1137 C           18.6127    20.6117   -42.8124 C       2      m2    -0.1268
   1138 C           18.7157    20.4781   -44.1443 C       2      m2    -0.1268
   1139 C           18.9215    19.7937   -40.4811 C       2      m2    -0.1060
   1140 C           20.1898    20.4187   -39.9455 C       2      m2     0.0000
   1141 C           21.2255    19.6616   -39.5490 C       2      m2    -0.1268
   1142 C           22.3487    20.2275   -39.0828 C       2      m2    -0.1268
   1143 C           22.5049    21.5623   -38.9874 C       2      m2     0.0265
   1144 C           21.4566    22.3069   -39.3932 C       2      m2    -0.1268
   1145 C           20.3273    21.7521   -39.8615 C       2      m2    -0.1268
   1146 O           23.6919    22.0528   -38.4982 O       2      m2    -0.1595
   1147 C           23.8687    23.4504   -38.3906 C       2      m2     0.0270
   1148 C           25.2702    23.7401   -37.8636 C       2      m2     0.0800
   1149 C           25.4413    24.0940   -36.5221 C       2      m2     0.0270
   1150 O           25.3835    25.2424   -37.5462 O       2      m2    -0.2660
   1151 H           20.6640    19.6645   -50.0142 H       2      m2     0.0530
   1152 H           21.0516    20.8728   -48.6465 H       2      m2     0.0530
   1153 H           18.6862    18.8243   -48.7387 H       2      m2     0.0530
   1154 H           19.5899    21.0998   -46.7437 H       2      m2     0.0530
   1155 H           17.9095    20.3908   -46.8510 H       2      m2     0.0530
   1156 H           20.0941    17.4918   -44.2802 H       2      m2     0.1268
   1157 H           19.9172    17.7188   -41.8868 H       2      m2     0.1268
   1158 H           18.1817    21.5373   -42.3956 H       2      m2     0.1268
   1159 H           18.3540    21.3185   -44.7577 H       2      m2     0.1268
   1160 H           18.0367    20.4149   -40.2117 H       2      m2     0.0530
   1161 H           18.7385    18.8051   -40.0011 H       2      m2     0.0530
   1162 H           21.1579    18.5626   -39.6074 H       2      m2     0.1268
   1163 H           23.1787    19.5723   -38.7663 H       2      m2     0.1268
   1164 H           21.4916    23.4071   -39.3558 H       2      m2     0.1268
   1165 H           19.4996    22.4057   -40.1847 H       2      m2     0.1268
   1166 H           23.7778    23.9142   -39.4004 H       2      m2     0.0530
   1167 H           23.0891    23.8614   -37.7090 H       2      m2     0.0530
   1168 H           26.1215    23.4082   -38.4665 H       2      m2     0.0530
   1169 H           26.4374    24.0822   -36.0810 H       2      m2     0.0530
   1170 H           24.5892    24.1925   -35.8518 H       2      m2     0.0530
@<TRIPOS>BOND
     1      1      2      1
     2      1      6      1
     3     11      1      1
     4      2      3      1
     5      2     13      1
     6      3      4      1
     7      9      3      1
     8      4      5      1
     9      4     14      1
    10      5      6      1
    11      7      5      1
    12      6     12      1
    13      7      8      1
    14      7     15      1
    15      7     16      1
    16      8     17      1
    17      8     18      1
    18      8     19      1
    19      9     10      1
    20      9     20      1
    21      9     21      1
    22     10     22      1
    23     10     23      1
    24     10     24      1
    25     11     25      1
    26     11     26      1
    27     11     27      1
    28     28     12      1
    29     29     12      1
    30     30     13      1
    31     31     13      1
    32     32     33      1
    33     32     37      1
    34     42     32      1
    35     33     34      1
    36     33     44      1
    37     34     35      1
    38     40     34      1
    39     35     36      1
    40     35     45      1
    41     36     37      1
    42     38     36      1
    43     37     43      1
    44     38     39      1
    45     38     46      1
    46     38     47      1
    47     39     48      1
    48     39     49      1
    49     39     50      1
    50     40     41      1
    51     40     51      1
    52     40     52      1
    53     41     53      1
    54     41     54      1
    55     41     55      1
    56     42     56      1
    57     42     57      1
    58     42     58      1
    59     59     43      1
    60     60     43      1
    61     61     44      1
    62     62     44      1
    63     63     64      1
    64     63     68      1
    65     73     63      1
    66     64     65      1
    67     64     75      1
    68     65     66      1
    69     71     65      1
    70     66     67      1
    71     66     76      1
    72     67     68      1
    73     69     67      1
    74     68     74      1
    75     69     70      1
    76     69     77      1
    77     69     78      1
    78     70     79      1
    79     70     80      1
    80     70     81      1
    81     71     72      1
    82     71     82      1
    83     71     83      1
    84     72     84      1
    85     72     85      1
    86     72     86      1
    87     73     87      1
    88     73     88      1
    89     73     89      1
    90     90     74      1
    91     91     74      1
    92     92     75      1
    93     93     75      1
    94     94     95      1
    95     94     99      1
    96    104     94      1
    97     95     96      1
    98     95    106      1
    99     96     97      1
   100    102     96      1
   101     97     98      1
   102     97    107      1
   103     98     99      1
   104    100     98      1
   105     99    105      1
   106    100    101      1
   107    100    108      1
   108    100    109      1
   109    101    110      1
   110    101    111      1
   111    101    112      1
   112    102    103      1
   113    102    113      1
   114    102    114      1
   115    103    115      1
   116    103    116      1
   117    103    117      1
   118    104    118      1
   119    104    119      1
   120    104    120      1
   121    121    105      1
   122    122    105      1
   123    123    106      1
   124    124    106      1
   125    125    126      1
   126    125    130      1
   127    135    125      1
   128    126    127      1
   129    126    137      1
   130    127    128      1
   131    133    127      1
   132    128    129      1
   133    128    138      1
   134    129    130      1
   135    131    129      1
   136    130    136      1
   137    131    132      1
   138    131    139      1
   139    131    140      1
   140    132    141      1
   141    132    142      1
   142    132    143      1
   143    133    134      1
   144    133    144      1
   145    133    145      1
   146    134    146      1
   147    134    147      1
   148    134    148      1
   149    135    149      1
   150    135    150      1
   151    135    151      1
   152    152    136      1
   153    153    136      1
   154    154    137      1
   155    155    137      1
   156    156    157      1
   157    156    161      1
   158    166    156      1
   159    157    158      1
   160    157    168      1
   161    158    159      1
   162    164    158      1
   163    159    160      1
   164    159    169      1
   165    160    161      1
   166    162    160      1
   167    161    167      1
   168    162    163      1
   169    162    170      1
   170    162    171      1
   171    163    172      1
   172    163    173      1
   173    163    174      1
   174    164    165      1
   175    164    175      1
   176    164    176      1
   177    165    177      1
   178    165    178      1
   179    165    179      1
   180    166    180      1
   181    166    181      1
   182    166    182      1
   183    183    167      1
   184    184    167      1
   185    185    168      1
   186    186    168      1
   187    187    188      1
   188    187    192      1
   189    197    187      1
   190    188    189      1
   191    188    199      1
   192    189    190      1
   193    195    189      1
   194    190    191      1
   195    190    200      1
   196    191    192      1
   197    193    191      1
   198    192    198      1
   199    193    194      1
   200    193    201      1
   201    193    202      1
   202    194    203      1
   203    194    204      1
   204    194    205      1
   205    195    196      1
   206    195    206      1
   207    195    207      1
   208    196    208      1
   209    196    209      1
   210    196    210      1
   211    197    211      1
   212    197    212      1
   213    197    213      1
   214    214    198      1
   215    215    198      1
   216    216    199      1
   217    217    199      1
   218    218    219      1
   219    218    223      1
   220    228    218      1
   221    219    220      1
   222    219    230      1
   223    220    221      1
   224    226    220      1
   225    221    222      1
   226    221    231      1
   227    222    223      1
   228    224    222      1
   229    223    229      1
   230    224    225      1
   231    224    232      1
   232    224    233      1
   233    225    234      1
   234    225    235      1
   235    225    236      1
   236    226    227      1
   237    226    237      1
   238    226    238      1
   239    227    239      1
   240    227    240      1
   241    227    241      1
   242    228    242      1
   243    228    243      1
   244    228    244      1
   245    245    229      1
   246    246    229      1
   247    247    230      1
   248    248    230      1
   249    249    250      1
   250    249    254      1
   251    259    249      1
   252    250    251      1
   253    250    261      1
   254    251    252      1
   255    257    251      1
   256    252    253      1
   257    252    262      1
   258    253    254      1
   259    255    253      1
   260    254    260      1
   261    255    256      1
   262    255    263      1
   263    255    264      1
   264    256    265      1
   265    256    266      1
   266    256    267      1
   267    257    258      1
   268    257    268      1
   269    257    269      1
   270    258    270      1
   271    258    271      1
   272    258    272      1
   273    259    273      1
   274    259    274      1
   275    259    275      1
   276    276    260      1
   277    277    260      1
   278    278    261      1
   279    279    261      1
   280    280    281      1
   281    280    285      1
   282    290    280      1
   283    281    282      1
   284    281    292      1
   285    282    283      1
   286    288    282      1
   287    283    284      1
   288    283    293      1
   289    284    285      1
   290    286    284      1
   291    285    291      1
   292    286    287      1
   293    286    294      1
   294    286    295      1
   295    287    296      1
   296    287    297      1
   297    287    298      1
   298    288    289      1
   299    288    299      1
   300    288    300      1
   301    289    301      1
   302    289    302      1
   303    289    303      1
   304    290    304      1
   305    290    305      1
   306    290    306      1
   307    307    291      1
   308    308    291      1
   309    309    292      1
   310    310    292      1
   311    312    311      1
   312    313    311      1
   313    312    313      1
   314    312    334      1
   315    312    335      1
   316    314    313      1
   317    313    336      1
   318    314    315      1
   319    314    337      1
   320    314    338      1
   321    316    315      1
   322    316    317      1
   323    316    321      1
   324    317    318      1
   325    317    339      1
   326    318    319      1
   327    318    340      1
   328    319    320      1
   329    322    319      1
   330    320    321      1
   331    320    341      1
   332    321    342      1
   333    322    323      1
   334    322    343      1
   335    322    344      1
   336    323    324      1
   337    323    328      1
   338    324    325      1
   339    324    345      1
   340    325    326      1
   341    325    346      1
   342    326    327      1
   343    326    329      1
   344    327    328      1
   345    327    347      1
   346    328    348      1
   347    330    329      1
   348    330    331      1
   349    330    349      1
   350    330    350      1
   351    331    332      1
   352    331    333      1
   353    331    351      1
   354    332    333      1
   355    332    352      1
   356    332    353      1
   357    355    354      1
   358    356    354      1
   359    355    356      1
   360    355    377      1
   361    355    378      1
   362    357    356      1
   363    356    379      1
   364    357    358      1
   365    357    380      1
   366    357    381      1
   367    359    358      1
   368    359    360      1
   369    359    364      1
   370    360    361      1
   371    360    382      1
   372    361    362      1
   373    361    383      1
   374    362    363      1
   375    365    362      1
   376    363    364      1
   377    363    384      1
   378    364    385      1
   379    365    366      1
   380    365    386      1
   381    365    387      1
   382    366    367      1
   383    366    371      1
   384    367    368      1
   385    367    388      1
   386    368    369      1
   387    368    389      1
   388    369    370      1
   389    369    372      1
   390    370    371      1
   391    370    390      1
   392    371    391      1
   393    373    372      1
   394    373    374      1
   395    373    392      1
   396    373    393      1
   397    374    375      1
   398    374    376      1
   399    374    394      1
   400    375    376      1
   401    375    395      1
   402    375    396      1
   403    398    397      1
   404    399    397      1
   405    398    399      1
   406    398    420      1
   407    398    421      1
   408    400    399      1
   409    399    422      1
   410    400    401      1
   411    400    423      1
   412    400    424      1
   413    402    401      1
   414    402    403      1
   415    402    407      1
   416    403    404      1
   417    403    425      1
   418    404    405      1
   419    404    426      1
   420    405    406      1
   421    408    405      1
   422    406    407      1
   423    406    427      1
   424    407    428      1
   425    408    409      1
   426    408    429      1
   427    408    430      1
   428    409    410      1
   429    409    414      1
   430    410    411      1
   431    410    431      1
   432    411    412      1
   433    411    432      1
   434    412    413      1
   435    412    415      1
   436    413    414      1
   437    413    433      1
   438    414    434      1
   439    416    415      1
   440    416    417      1
   441    416    435      1
   442    416    436      1
   443    417    418      1
   444    417    419      1
   445    417    437      1
   446    418    419      1
   447    418    438      1
   448    418    439      1
   449    441    440      1
   450    442    440      1
   451    441    442      1
   452    441    463      1
   453    441    464      1
   454    443    442      1
   455    442    465      1
   456    443    444      1
   457    443    466      1
   458    443    467      1
   459    445    444      1
   460    445    446      1
   461    445    450      1
   462    446    447      1
   463    446    468      1
   464    447    448      1
   465    447    469      1
   466    448    449      1
   467    451    448      1
   468    449    450      1
   469    449    470      1
   470    450    471      1
   471    451    452      1
   472    451    472      1
   473    451    473      1
   474    452    453      1
   475    452    457      1
   476    453    454      1
   477    453    474      1
   478    454    455      1
   479    454    475      1
   480    455    456      1
   481    455    458      1
   482    456    457      1
   483    456    476      1
   484    457    477      1
   485    459    458      1
   486    459    460      1
   487    459    478      1
   488    459    479      1
   489    460    461      1
   490    460    462      1
   491    460    480      1
   492    461    462      1
   493    461    481      1
   494    461    482      1
   495    484    483      1
   496    485    483      1
   497    484    485      1
   498    484    506      1
   499    484    507      1
   500    486    485      1
   501    485    508      1
   502    486    487      1
   503    486    509      1
   504    486    510      1
   505    488    487      1
   506    488    489      1
   507    488    493      1
   508    489    490      1
   509    489    511      1
   510    490    491      1
   511    490    512      1
   512    491    492      1
   513    494    491      1
   514    492    493      1
   515    492    513      1
   516    493    514      1
   517    494    495      1
   518    494    515      1
   519    494    516      1
   520    495    496      1
   521    495    500      1
   522    496    497      1
   523    496    517      1
   524    497    498      1
   525    497    518      1
   526    498    499      1
   527    498    501      1
   528    499    500      1
   529    499    519      1
   530    500    520      1
   531    502    501      1
   532    502    503      1
   533    502    521      1
   534    502    522      1
   535    503    504      1
   536    503    505      1
   537    503    523      1
   538    504    505      1
   539    504    524      1
   540    504    525      1
   541    527    526      1
   542    528    526      1
   543    527    528      1
   544    527    549      1
   545    527    550      1
   546    529    528      1
   547    528    551      1
   548    529    530      1
   549    529    552      1
   550    529    553      1
   551    531    530      1
   552    531    532      1
   553    531    536      1
   554    532    533      1
   555    532    554      1
   556    533    534      1
   557    533    555      1
   558    534    535      1
   559    537    534      1
   560    535    536      1
   561    535    556      1
   562    536    557      1
   563    537    538      1
   564    537    558      1
   565    537    559      1
   566    538    539      1
   567    538    543      1
   568    539    540      1
   569    539    560      1
   570    540    541      1
   571    540    561      1
   572    541    542      1
   573    541    544      1
   574    542    543      1
   575    542    562      1
   576    543    563      1
   577    545    544      1
   578    545    546      1
   579    545    564      1
   580    545    565      1
   581    546    547      1
   582    546    548      1
   583    546    566      1
   584    547    548      1
   585    547    567      1
   586    547    568      1
   587    570    569      1
   588    571    569      1
   589    570    571      1
   590    570    592      1
   591    570    593      1
   592    572    571      1
   593    571    594      1
   594    572    573      1
   595    572    595      1
   596    572    596      1
   597    574    573      1
   598    574    575      1
   599    574    579      1
   600    575    576      1
   601    575    597      1
   602    576    577      1
   603    576    598      1
   604    577    578      1
   605    580    577      1
   606    578    579      1
   607    578    599      1
   608    579    600      1
   609    580    581      1
   610    580    601      1
   611    580    602      1
   612    581    582      1
   613    581    586      1
   614    582    583      1
   615    582    603      1
   616    583    584      1
   617    583    604      1
   618    584    585      1
   619    584    587      1
   620    585    586      1
   621    585    605      1
   622    586    606      1
   623    588    587      1
   624    588    589      1
   625    588    607      1
   626    588    608      1
   627    589    590      1
   628    589    591      1
   629    589    609      1
   630    590    591      1
   631    590    610      1
   632    590    611      1
   633    613    612      1
   634    614    612      1
   635    613    614      1
   636    613    635      1
   637    613    636      1
   638    615    614      1
   639    614    637      1
   640    615    616      1
   641    615    638      1
   642    615    639      1
   643    617    616      1
   644    617    618      1
   645    617    622      1
   646    618    619      1
   647    618    640      1
   648    619    620      1
   649    619    641      1
   650    620    621      1
   651    623    620      1
   652    621    622      1
   653    621    642      1
   654    622    643      1
   655    623    624      1
   656    623    644      1
   657    623    645      1
   658    624    625      1
   659    624    629      1
   660    625    626      1
   661    625    646      1
   662    626    627      1
   663    626    647      1
   664    627    628      1
   665    627    630      1
   666    628    629      1
   667    628    648      1
   668    629    649      1
   669    631    630      1
   670    631    632      1
   671    631    650      1
   672    631    651      1
   673    632    633      1
   674    632    634      1
   675    632    652      1
   676    633    634      1
   677    633    653      1
   678    633    654      1
   679    656    655      1
   680    657    655      1
   681    656    657      1
   682    656    678      1
   683    656    679      1
   684    658    657      1
   685    657    680      1
   686    658    659      1
   687    658    681      1
   688    658    682      1
   689    660    659      1
   690    660    661      1
   691    660    665      1
   692    661    662      1
   693    661    683      1
   694    662    663      1
   695    662    684      1
   696    663    664      1
   697    666    663      1
   698    664    665      1
   699    664    685      1
   700    665    686      1
   701    666    667      1
   702    666    687      1
   703    666    688      1
   704    667    668      1
   705    667    672      1
   706    668    669      1
   707    668    689      1
   708    669    670      1
   709    669    690      1
   710    670    671      1
   711    670    673      1
   712    671    672      1
   713    671    691      1
   714    672    692      1
   715    674    673      1
   716    674    675      1
   717    674    693      1
   718    674    694      1
   719    675    676      1
   720    675    677      1
   721    675    695      1
   722    676    677      1
   723    676    696      1
   724    676    697      1
   725    699    698      1
   726    700    698      1
   727    699    700      1
   728    699    721      1
   729    699    722      1
   730    701    700      1
   731    700    723      1
   732    701    702      1
   733    701    724      1
   734    701    725      1
   735    703    702      1
   736    703    704      1
   737    703    708      1
   738    704    705      1
   739    704    726      1
   740    705    706      1
   741    705    727      1
   742    706    707      1
   743    709    706      1
   744    707    708      1
   745    707    728      1
   746    708    729      1
   747    709    710      1
   748    709    730      1
   749    709    731      1
   750    710    711      1
   751    710    715      1
   752    711    712      1
   753    711    732      1
   754    712    713      1
   755    712    733      1
   756    713    714      1
   757    713    716      1
   758    714    715      1
   759    714    734      1
   760    715    735      1
   761    717    716      1
   762    717    718      1
   763    717    736      1
   764    717    737      1
   765    718    719      1
   766    718    720      1
   767    718    738      1
   768    719    720      1
   769    719    739      1
   770    719    740      1
   771    742    741      1
   772    743    741      1
   773    742    743      1
   774    742    764      1
   775    742    765      1
   776    744    743      1
   777    743    766      1
   778    744    745      1
   779    744    767      1
   780    744    768      1
   781    746    745      1
   782    746    747      1
   783    746    751      1
   784    747    748      1
   785    747    769      1
   786    748    749      1
   787    748    770      1
   788    749    750      1
   789    752    749      1
   790    750    751      1
   791    750    771      1
   792    751    772      1
   793    752    753      1
   794    752    773      1
   795    752    774      1
   796    753    754      1
   797    753    758      1
   798    754    755      1
   799    754    775      1
   800    755    756      1
   801    755    776      1
   802    756    757      1
   803    756    759      1
   804    757    758      1
   805    757    777      1
   806    758    778      1
   807    760    759      1
   808    760    761      1
   809    760    779      1
   810    760    780      1
   811    761    762      1
   812    761    763      1
   813    761    781      1
   814    762    763      1
   815    762    782      1
   816    762    783      1
   817    785    784      1
   818    786    784      1
   819    785    786      1
   820    785    807      1
   821    785    808      1
   822    787    786      1
   823    786    809      1
   824    787    788      1
   825    787    810      1
   826    787    811      1
   827    789    788      1
   828    789    790      1
   829    789    794      1
   830    790    791      1
   831    790    812      1
   832    791    792      1
   833    791    813      1
   834    792    793      1
   835    795    792      1
   836    793    794      1
   837    793    814      1
   838    794    815      1
   839    795    796      1
   840    795    816      1
   841    795    817      1
   842    796    797      1
   843    796    801      1
   844    797    798      1
   845    797    818      1
   846    798    799      1
   847    798    819      1
   848    799    800      1
   849    799    802      1
   850    800    801      1
   851    800    820      1
   852    801    821      1
   853    803    802      1
   854    803    804      1
   855    803    822      1
   856    803    823      1
   857    804    805      1
   858    804    806      1
   859    804    824      1
   860    805    806      1
   861    805    825      1
   862    805    826      1
   863    828    827      1
   864    829    827      1
   865    828    829      1
   866    828    850      1
   867    828    851      1
   868    830    829      1
   869    829    852      1
   870    830    831      1
   871    830    853      1
   872    830    854      1
   873    832    831      1
   874    832    833      1
   875    832    837      1
   876    833    834      1
   877    833    855      1
   878    834    835      1
   879    834    856      1
   880    835    836      1
   881    838    835      1
   882    836    837      1
   883    836    857      1
   884    837    858      1
   885    838    839      1
   886    838    859      1
   887    838    860      1
   888    839    840      1
   889    839    844      1
   890    840    841      1
   891    840    861      1
   892    841    842      1
   893    841    862      1
   894    842    843      1
   895    842    845      1
   896    843    844      1
   897    843    863      1
   898    844    864      1
   899    846    845      1
   900    846    847      1
   901    846    865      1
   902    846    866      1
   903    847    848      1
   904    847    849      1
   905    847    867      1
   906    848    849      1
   907    848    868      1
   908    848    869      1
   909    871    870      1
   910    872    870      1
   911    871    872      1
   912    871    893      1
   913    871    894      1
   914    873    872      1
   915    872    895      1
   916    873    874      1
   917    873    896      1
   918    873    897      1
   919    875    874      1
   920    875    876      1
   921    875    880      1
   922    876    877      1
   923    876    898      1
   924    877    878      1
   925    877    899      1
   926    878    879      1
   927    881    878      1
   928    879    880      1
   929    879    900      1
   930    880    901      1
   931    881    882      1
   932    881    902      1
   933    881    903      1
   934    882    883      1
   935    882    887      1
   936    883    884      1
   937    883    904      1
   938    884    885      1
   939    884    905      1
   940    885    886      1
   941    885    888      1
   942    886    887      1
   943    886    906      1
   944    887    907      1
   945    889    888      1
   946    889    890      1
   947    889    908      1
   948    889    909      1
   949    890    891      1
   950    890    892      1
   951    890    910      1
   952    891    892      1
   953    891    911      1
   954    891    912      1
   955    914    913      1
   956    915    913      1
   957    914    915      1
   958    914    936      1
   959    914    937      1
   960    916    915      1
   961    915    938      1
   962    916    917      1
   963    916    939      1
   964    916    940      1
   965    918    917      1
   966    918    919      1
   967    918    923      1
   968    919    920      1
   969    919    941      1
   970    920    921      1
   971    920    942      1
   972    921    922      1
   973    924    921      1
   974    922    923      1
   975    922    943      1
   976    923    944      1
   977    924    925      1
   978    924    945      1
   979    924    946      1
   980    925    926      1
   981    925    930      1
   982    926    927      1
   983    926    947      1
   984    927    928      1
   985    927    948      1
   986    928    929      1
   987    928    931      1
   988    929    930      1
   989    929    949      1
   990    930    950      1
   991    932    931      1
   992    932    933      1
   993    932    951      1
   994    932    952      1
   995    933    934      1
   996    933    935      1
   997    933    953      1
   998    934    935      1
   999    934    954      1
  1000    934    955      1
  1001    957    956      1
  1002    958    956      1
  1003    957    958      1
  1004    957    979      1
  1005    957    980      1
  1006    959    958      1
  1007    958    981      1
  1008    959    960      1
  1009    959    982      1
  1010    959    983      1
  1011    961    960      1
  1012    961    962      1
  1013    961    966      1
  1014    962    963      1
  1015    962    984      1
  1016    963    964      1
  1017    963    985      1
  1018    964    965      1
  1019    967    964      1
  1020    965    966      1
  1021    965    986      1
  1022    966    987      1
  1023    967    968      1
  1024    967    988      1
  1025    967    989      1
  1026    968    969      1
  1027    968    973      1
  1028    969    970      1
  1029    969    990      1
  1030    970    971      1
  1031    970    991      1
  1032    971    972      1
  1033    971    974      1
  1034    972    973      1
  1035    972    992      1
  1036    973    993      1
  1037    975    974      1
  1038    975    976      1
  1039    975    994      1
  1040    975    995      1
  1041    976    977      1
  1042    976    978      1
  1043    976    996      1
  1044    977    978      1
  1045    977    997      1
  1046    977    998      1
  1047   1000    999      1
  1048   1001    999      1
  1049   1000   1001      1
  1050   1000   1022      1
  1051   1000   1023      1
  1052   1002   1001      1
  1053   1001   1024      1
  1054   1002   1003      1
  1055   1002   1025      1
  1056   1002   1026      1
  1057   1004   1003      1
  1058   1004   1005      1
  1059   1004   1009      1
  1060   1005   1006      1
  1061   1005   1027      1
  1062   1006   1007      1
  1063   1006   1028      1
  1064   1007   1008      1
  1065   1010   1007      1
  1066   1008   1009      1
  1067   1008   1029      1
  1068   1009   1030      1
  1069   1010   1011      1
  1070   1010   1031      1
  1071   1010   1032      1
  1072   1011   1012      1
  1073   1011   1016      1
  1074   1012   1013      1
  1075   1012   1033      1
  1076   1013   1014      1
  1077   1013   1034      1
  1078   1014   1015      1
  1079   1014   1017      1
  1080   1015   1016      1
  1081   1015   1035      1
  1082   1016   1036      1
  1083   1018   1017      1
  1084   1018   1019      1
  1085   1018   1037      1
  1086   1018   1038      1
  1087   1019   1020      1
  1088   1019   1021      1
  1089   1019   1039      1
  1090   1020   1021      1
  1091   1020   1040      1
  1092   1020   1041      1
  1093   1043   1042      1
  1094   1044   1042      1
  1095   1043   1044      1
  1096   1043   1065      1
  1097   1043   1066      1
  1098   1045   1044      1
  1099   1044   1067      1
  1100   1045   1046      1
  1101   1045   1068      1
  1102   1045   1069      1
  1103   1047   1046      1
  1104   1047   1048      1
  1105   1047   1052      1
  1106   1048   1049      1
  1107   1048   1070      1
  1108   1049   1050      1
  1109   1049   1071      1
  1110   1050   1051      1
  1111   1053   1050      1
  1112   1051   1052      1
  1113   1051   1072      1
  1114   1052   1073      1
  1115   1053   1054      1
  1116   1053   1074      1
  1117   1053   1075      1
  1118   1054   1055      1
  1119   1054   1059      1
  1120   1055   1056      1
  1121   1055   1076      1
  1122   1056   1057      1
  1123   1056   1077      1
  1124   1057   1058      1
  1125   1057   1060      1
  1126   1058   1059      1
  1127   1058   1078      1
  1128   1059   1079      1
  1129   1061   1060      1
  1130   1061   1062      1
  1131   1061   1080      1
  1132   1061   1081      1
  1133   1062   1063      1
  1134   1062   1064      1
  1135   1062   1082      1
  1136   1063   1064      1
  1137   1063   1083      1
  1138   1063   1084      1
  1139   1086   1085      1
  1140   1087   1085      1
  1141   1086   1087      1
  1142   1086   1108      1
  1143   1086   1109      1
  1144   1088   1087      1
  1145   1087   1110      1
  1146   1088   1089      1
  1147   1088   1111      1
  1148   1088   1112      1
  1149   1090   1089      1
  1150   1090   1091      1
  1151   1090   1095      1
  1152   1091   1092      1
  1153   1091   1113      1
  1154   1092   1093      1
  1155   1092   1114      1
  1156   1093   1094      1
  1157   1096   1093      1
  1158   1094   1095      1
  1159   1094   1115      1
  1160   1095   1116      1
  1161   1096   1097      1
  1162   1096   1117      1
  1163   1096   1118      1
  1164   1097   1098      1
  1165   1097   1102      1
  1166   1098   1099      1
  1167   1098   1119      1
  1168   1099   1100      1
  1169   1099   1120      1
  1170   1100   1101      1
  1171   1100   1103      1
  1172   1101   1102      1
  1173   1101   1121      1
  1174   1102   1122      1
  1175   1104   1103      1
  1176   1104   1105      1
  1177   1104   1123      1
  1178   1104   1124      1
  1179   1105   1106      1
  1180   1105   1107      1
  1181   1105   1125      1
  1182   1106   1107      1
  1183   1106   1126      1
  1184   1106   1127      1
  1185   1129   1128      1
  1186   1130   1128      1
  1187   1129   1130      1
  1188   1129   1151      1
  1189   1129   1152      1
  1190   1131   1130      1
  1191   1130   1153      1
  1192   1131   1132      1
  1193   1131   1154      1
  1194   1131   1155      1
  1195   1133   1132      1
  1196   1133   1134      1
  1197   1133   1138      1
  1198   1134   1135      1
  1199   1134   1156      1
  1200   1135   1136      1
  1201   1135   1157      1
  1202   1136   1137      1
  1203   1139   1136      1
  1204   1137   1138      1
  1205   1137   1158      1
  1206   1138   1159      1
  1207   1139   1140      1
  1208   1139   1160      1
  1209   1139   1161      1
  1210   1140   1141      1
  1211   1140   1145      1
  1212   1141   1142      1
  1213   1141   1162      1
  1214   1142   1143      1
  1215   1142   1163      1
  1216   1143   1144      1
  1217   1143   1146      1
  1218   1144   1145      1
  1219   1144   1164      1
  1220   1145   1165      1
  1221   1147   1146      1
  1222   1147   1148      1
  1223   1147   1166      1
  1224   1147   1167      1
  1225   1148   1149      1
  1226   1148   1150      1
  1227   1148   1168      1
  1228   1149   1150      1
  1229   1149   1169      1
  1230   1149   1170      1
