@<TRIPOS>MOLECULE
cell_builder v1.3 / 11 December 2023 (Visualize in VMD w/Coloring Method=ResName to see molecule distribution)
  1170 0    0    0    0
SMALL
NO_CHARGES
****
Energy = 0

@<TRIPOS>ATOM
      1 C          -16.7515    -0.4383   -33.3583 C       1      m1     0.0000
      2 C          -15.5431     0.1678   -33.2893 C       1      m1     0.0000
      3 C          -15.0001     0.4944   -32.0961 C       1      m1     0.0000
      4 C          -15.7092     0.1923   -30.9914 C       1      m1     0.0000
      5 C          -16.9094    -0.4073   -31.0092 C       1      m1     0.0000
      6 C          -17.4169    -0.7170   -32.2169 C       1      m1     0.0000
      7 C          -17.6668    -0.7254   -29.7279 C       1      m1     0.0000
      8 C          -17.0144    -0.3376   -28.3930 C       1      m1     0.0000
      9 C          -13.6613     1.1755   -31.8133 C       1      m1     0.0000
     10 C          -12.6813     1.6132   -32.9068 C       1      m1     0.0000
     11 C          -17.4096    -0.8282   -34.6758 C       1      m1     0.0000
     12 N          -18.5516    -1.2855   -32.2690 N       1      m1     0.0000
     13 N          -14.9330     0.4215   -34.3718 N       1      m1     0.0000
     14 H          -15.2670     0.4583   -30.0193 H       1      m1     0.0000
     15 H          -18.6575    -0.2107   -29.7751 H       1      m1     0.0000
     16 H          -17.8513    -1.8270   -29.6996 H       1      m1     0.0000
     17 H          -17.6700    -0.6248   -27.5382 H       1      m1     0.0000
     18 H          -16.0425    -0.8607   -28.2409 H       1      m1     0.0000
     19 H          -16.8519     0.7619   -28.3167 H       1      m1     0.0000
     20 H          -13.8897     2.0935   -31.2157 H       1      m1     0.0000
     21 H          -13.0890     0.4886   -31.1406 H       1      m1     0.0000
     22 H          -11.7786     2.0847   -32.4524 H       1      m1     0.0000
     23 H          -12.3060     0.7484   -33.5004 H       1      m1     0.0000
     24 H          -13.1227     2.3859   -33.5769 H       1      m1     0.0000
     25 H          -16.8531    -0.5937   -35.6036 H       1      m1     0.0000
     26 H          -17.5794    -1.9289   -34.7097 H       1      m1     0.0000
     27 H          -18.3886    -0.3076   -34.7853 H       1      m1     0.0000
     28 H          -18.9985    -1.5510   -33.1786 H       1      m1     0.0000
     29 H          -19.0912    -1.5141   -31.4003 H       1      m1     0.0000
     30 H          -14.0019     0.8842   -34.4115 H       1      m1     0.0000
     31 H          -15.3130     0.1878   -35.3164 H       1      m1     0.0000
     32 O            4.6058    10.0509    17.2013 O       2      m2     0.0000
     33 C            5.2636    11.1401    16.3340 C       2      m2     0.0000
     34 C            4.8060    11.5251    17.5976 C       2      m2     0.0000
     35 C            3.4407    12.1915    17.7307 C       2      m2     0.0000
     36 O            3.6169    13.5832    17.8990 O       2      m2     0.0000
     37 C            2.5117    14.3855    18.0529 C       2      m2     0.0000
     38 C            2.6904    15.7167    18.1583 C       2      m2     0.0000
     39 C            1.6699    16.5744    18.3067 C       2      m2     0.0000
     40 C            0.4033    16.1312    18.3570 C       2      m2     0.0000
     41 C            0.2038    14.8075    18.2464 C       2      m2     0.0000
     42 C            1.2334    13.9590    18.0979 C       2      m2     0.0000
     43 C           -0.7556    17.0894    18.5149 C       2      m2     0.0000
     44 C           -1.2203    17.5493    17.1516 C       2      m2     0.0000
     45 C           -0.7082    18.6489    16.5756 C       2      m2     0.0000
     46 C           -1.1226    19.0428    15.3623 C       2      m2     0.0000
     47 C           -2.0570    18.3727    14.6601 C       2      m2     0.0000
     48 C           -2.5575    17.2693    15.2519 C       2      m2     0.0000
     49 C           -2.1508    16.8652    16.4658 C       2      m2     0.0000
     50 O           -2.4194    18.8505    13.4235 O       2      m2     0.0000
     51 C           -3.3996    18.1590    12.6769 C       2      m2     0.0000
     52 C           -3.5956    18.8586    11.3360 C       2      m2     0.0000
     53 C           -4.7111    19.6791    11.1445 C       2      m2     0.0000
     54 O           -4.8071    18.2346    10.6198 O       2      m2     0.0000
     55 H            6.3111    10.8760    16.1939 H       2      m2     0.0000
     56 H            4.6515    11.2830    15.4451 H       2      m2     0.0000
     57 H            5.4988    11.6068    18.4413 H       2      m2     0.0000
     58 H            2.8159    12.0137    16.8254 H       2      m2     0.0000
     59 H            2.9380    11.7697    18.6319 H       2      m2     0.0000
     60 H            3.7175    16.1189    18.1198 H       2      m2     0.0000
     61 H            1.8781    17.6544    18.3848 H       2      m2     0.0000
     62 H           -0.8238    14.4080    18.2748 H       2      m2     0.0000
     63 H            0.9874    12.8887    18.0131 H       2      m2     0.0000
     64 H           -1.5921    16.6053    19.0693 H       2      m2     0.0000
     65 H           -0.4580    17.9608    19.1422 H       2      m2     0.0000
     66 H            0.0631    19.2365    17.1006 H       2      m2     0.0000
     67 H           -0.6785    19.9520    14.9214 H       2      m2     0.0000
     68 H           -3.3237    16.6544    14.7540 H       2      m2     0.0000
     69 H           -2.5888    15.9530    16.9047 H       2      m2     0.0000
     70 H           -3.0476    17.1206    12.4754 H       2      m2     0.0000
     71 H           -4.3480    18.1352    13.2612 H       2      m2     0.0000
     72 H           -2.7365    18.9175    10.6601 H       2      m2     0.0000
     73 H           -4.7476    20.3538    10.2900 H       2      m2     0.0000
     74 H           -5.4575    19.8074    11.9265 H       2      m2     0.0000
     75 O           12.7890   -35.5540    10.0749 O       2      m2     0.0000
     76 C           11.9057   -35.5938    11.3356 C       2      m2     0.0000
     77 C           12.2800   -34.3328    10.8625 C       2      m2     0.0000
     78 C           13.4714   -33.6182    11.4915 C       2      m2     0.0000
     79 O           13.0018   -32.6185    12.3727 O       2      m2     0.0000
     80 C           13.9101   -31.8360    13.0444 C       2      m2     0.0000
     81 C           13.4506   -30.9229    13.9222 C       2      m2     0.0000
     82 C           14.2642   -30.1202    14.6242 C       2      m2     0.0000
     83 C           15.5969   -30.1963    14.4770 C       2      m2     0.0000
     84 C           16.0751   -31.1055    13.6117 C       2      m2     0.0000
     85 C           15.2505   -31.9036    12.9150 C       2      m2     0.0000
     86 C           16.5242   -29.3030    15.2695 C       2      m2     0.0000
     87 C           16.8684   -29.9696    16.5822 C       2      m2     0.0000
     88 C           16.1275   -29.7638    17.6831 C       2      m2     0.0000
     89 C           16.4379   -30.3669    18.8402 C       2      m2     0.0000
     90 C           17.4887   -31.2005    18.9667 C       2      m2     0.0000
     91 C           18.2192   -31.3984    17.8507 C       2      m2     0.0000
     92 C           17.9185   -30.8004    16.6869 C       2      m2     0.0000
     93 O           17.7302   -31.7742    20.1920 O       2      m2     0.0000
     94 C           18.8299   -32.6488    20.3396 C       2      m2     0.0000
     95 C           18.8603   -33.1804    21.7687 C       2      m2     0.0000
     96 C           19.7721   -32.6447    22.6830 C       2      m2     0.0000
     97 O           20.1718   -33.9574    21.9844 O       2      m2     0.0000
     98 H           10.9382   -36.0114    11.0594 H       2      m2     0.0000
     99 H           12.4657   -36.0878    12.1279 H       2      m2     0.0000
    100 H           11.5926   -33.7391    10.2513 H       2      m2     0.0000
    101 H           14.1125   -34.3293    12.0614 H       2      m2     0.0000
    102 H           14.0601   -33.1436    10.6724 H       2      m2     0.0000
    103 H           12.3608   -30.8319    14.0714 H       2      m2     0.0000
    104 H           13.8297   -29.3937    15.3306 H       2      m2     0.0000
    105 H           17.1647   -31.2024    13.4711 H       2      m2     0.0000
    106 H           15.7199   -32.6239    12.2264 H       2      m2     0.0000
    107 H           17.4495   -29.0843    14.6887 H       2      m2     0.0000
    108 H           16.0515   -28.3097    15.4463 H       2      m2     0.0000
    109 H           15.2522   -29.0946    17.6400 H       2      m2     0.0000
    110 H           15.8053   -30.1730    19.7237 H       2      m2     0.0000
    111 H           19.0955   -32.0656    17.8550 H       2      m2     0.0000
    112 H           18.5456   -30.9986    15.8015 H       2      m2     0.0000
    113 H           18.7075   -33.5173    19.6515 H       2      m2     0.0000
    114 H           19.7659   -32.0959    20.0956 H       2      m2     0.0000
    115 H           18.0033   -33.7676    22.1137 H       2      m2     0.0000
    116 H           19.6560   -32.8479    23.7469 H       2      m2     0.0000
    117 H           20.4798   -31.8724    22.3867 H       2      m2     0.0000
    118 C          -30.8842   -32.7774    32.8674 C       1      m1     0.0000
    119 C          -32.2227   -32.9471    32.9760 C       1      m1     0.0000
    120 C          -33.0746   -32.2433    32.1988 C       1      m1     0.0000
    121 C          -32.5359   -31.3749    31.3211 C       1      m1     0.0000
    122 C          -31.2174   -31.1723    31.1772 C       1      m1     0.0000
    123 C          -30.4012   -31.8923    31.9693 C       1      m1     0.0000
    124 C          -30.6639   -30.1768    30.1676 C       1      m1     0.0000
    125 C          -31.6661   -29.3975    29.3039 C       1      m1     0.0000
    126 C          -34.6021   -32.2928    32.1725 C       1      m1     0.0000
    127 C          -35.4398   -33.2021    33.0775 C       1      m1     0.0000
    128 C          -29.8793   -33.5441    33.7179 C       1      m1     0.0000
    129 N          -29.1470   -31.7243    31.8583 N       1      m1     0.0000
    130 N          -32.6577   -33.7828    33.8250 N       1      m1     0.0000
    131 H          -33.2298   -30.8015    30.6879 H       1      m1     0.0000
    132 H          -30.0502   -29.4262    30.7231 H       1      m1     0.0000
    133 H          -29.9862   -30.7300    29.4724 H       1      m1     0.0000
    134 H          -31.1321   -28.7066    28.6108 H       1      m1     0.0000
    135 H          -32.2798   -30.0768    28.6689 H       1      m1     0.0000
    136 H          -32.3440   -28.7678    29.9245 H       1      m1     0.0000
    137 H          -34.9590   -31.2499    32.3645 H       1      m1     0.0000
    138 H          -34.8956   -32.5444    31.1225 H       1      m1     0.0000
    139 H          -36.5265   -33.0585    32.8723 H       1      m1     0.0000
    140 H          -35.2351   -34.2807    32.8887 H       1      m1     0.0000
    141 H          -35.2999   -32.9599    34.1557 H       1      m1     0.0000
    142 H          -30.2891   -34.2662    34.4502 H       1      m1     0.0000
    143 H          -29.2028   -34.1437    33.0666 H       1      m1     0.0000
    144 H          -29.2665   -32.8355    34.3211 H       1      m1     0.0000
    145 H          -28.4615   -32.2551    32.4464 H       1      m1     0.0000
    146 H          -28.7432   -31.0448    31.1705 H       1      m1     0.0000
    147 H          -33.6690   -33.9759    33.9747 H       1      m1     0.0000
    148 H          -32.0379   -34.3489    34.4468 H       1      m1     0.0000
    149 O            4.6694     5.8533    30.5917 O       2      m2     0.0000
    150 C            5.2163     4.5194    30.0505 C       2      m2     0.0000
    151 C            3.9577     4.9215    29.5938 C       2      m2     0.0000
    152 C            2.7041     4.3559    30.2528 C       2      m2     0.0000
    153 O            2.1543     3.3534    29.4227 O       2      m2     0.0000
    154 C            1.0046     2.7120    29.8170 C       2      m2     0.0000
    155 C            0.5207     1.7210    29.0430 C       2      m2     0.0000
    156 C           -0.5918     1.0387    29.3523 C       2      m2     0.0000
    157 C           -1.2820     1.3220    30.4689 C       2      m2     0.0000
    158 C           -0.8116     2.3022    31.2576 C       2      m2     0.0000
    159 C            0.3034     2.9778    30.9375 C       2      m2     0.0000
    160 C           -2.5324     0.5536    30.8324 C       2      m2     0.0000
    161 C           -2.1590    -0.6595    31.6542 C       2      m2     0.0000
    162 C           -1.8973    -1.8410    31.0724 C       2      m2     0.0000
    163 C           -1.5593    -2.9083    31.8111 C       2      m2     0.0000
    164 C           -1.4615    -2.8616    33.1540 C       2      m2     0.0000
    165 C           -1.7240    -1.6667    33.7210 C       2      m2     0.0000
    166 C           -2.0633    -0.5915    32.9922 C       2      m2     0.0000
    167 O           -1.1081    -4.0058    33.8285 O       2      m2     0.0000
    168 C           -1.0037    -3.9718    35.2371 C       2      m2     0.0000
    169 C           -0.5635    -5.3422    35.7411 C       2      m2     0.0000
    170 C           -1.5082    -6.2034    36.3068 C       2      m2     0.0000
    171 O           -0.6582    -5.3631    37.2776 O       2      m2     0.0000
    172 H            6.1030     4.7326    29.4547 H       2      m2     0.0000
    173 H            5.3188     3.8295    30.8865 H       2      m2     0.0000
    174 H            3.8470     5.4110    28.6209 H       2      m2     0.0000
    175 H            2.9374     3.9125    31.2480 H       2      m2     0.0000
    176 H            1.9698     5.1870    30.3663 H       2      m2     0.0000
    177 H            1.0618     1.4583    28.1175 H       2      m2     0.0000
    178 H           -0.9379     0.2354    28.6809 H       2      m2     0.0000
    179 H           -1.3475     2.5568    32.1874 H       2      m2     0.0000
    180 H            0.6249     3.7663    31.6363 H       2      m2     0.0000
    181 H           -3.2419     1.2025    31.3952 H       2      m2     0.0000
    182 H           -3.0840     0.2498    29.9134 H       2      m2     0.0000
    183 H           -1.9572    -1.9396    29.9758 H       2      m2     0.0000
    184 H           -1.3517    -3.8628    31.2970 H       2      m2     0.0000
    185 H           -1.6668    -1.5298    34.8123 H       2      m2     0.0000
    186 H           -2.2644     0.3647    33.5040 H       2      m2     0.0000
    187 H           -0.2261    -3.2298    35.5332 H       2      m2     0.0000
    188 H           -1.9910    -3.6833    35.6653 H       2      m2     0.0000
    189 H            0.4089    -5.7203    35.4097 H       2      m2     0.0000
    190 H           -1.2613    -7.2532    36.4608 H       2      m2     0.0000
    191 H           -2.5487    -5.9037    36.4187 H       2      m2     0.0000
    192 O           38.0354    27.5930   -17.4834 O       2      m2     0.0000
    193 C           36.7331    27.0303   -18.0821 C       2      m2     0.0000
    194 C           37.1036    28.3215   -18.4691 C       2      m2     0.0000
    195 C           36.4819    29.5234   -17.7658 C       2      m2     0.0000
    196 O           35.4810    30.0799   -18.5933 O       2      m2     0.0000
    197 C           34.7930    31.1883   -18.1611 C       2      m2     0.0000
    198 C           33.8044    31.6768   -18.9353 C       2      m2     0.0000
    199 C           33.0787    32.7509   -18.5908 C       2      m2     0.0000
    200 C           33.3134    33.3954   -17.4363 C       2      m2     0.0000
    201 C           34.2904    32.9195   -16.6469 C       2      m2     0.0000
    202 C           35.0098    31.8432   -17.0026 C       2      m2     0.0000
    203 C           32.4960    34.6018   -17.0331 C       2      m2     0.0000
    204 C           31.2775    34.1508   -16.2597 C       2      m2     0.0000
    205 C           30.1188    33.8796   -16.8819 C       2      m2     0.0000
    206 C           29.0467    33.4727   -16.1862 C       2      m2     0.0000
    207 C           29.0659    33.3122   -14.8486 C       2      m2     0.0000
    208 C           30.2382    33.5854   -14.2409 C       2      m2     0.0000
    209 C           31.3180    33.9935   -14.9265 C       2      m2     0.0000
    210 O           27.9190    32.8905   -14.2196 O       2      m2     0.0000
    211 C           27.9242    32.7200   -12.8171 C       2      m2     0.0000
    212 C           26.5579    32.2125   -12.3680 C       2      m2     0.0000
    213 C           25.6532    33.1010   -11.7796 C       2      m2     0.0000
    214 O           26.4988    32.2328   -10.8297 O       2      m2     0.0000
    215 H           36.9891    26.1804   -18.7137 H       2      m2     0.0000
    216 H           36.0280    26.8659   -17.2690 H       2      m2     0.0000
    217 H           37.6113    28.4942   -19.4235 H       2      m2     0.0000
    218 H           36.0238    29.2287   -16.7939 H       2      m2     0.0000
    219 H           37.2854    30.2776   -17.5976 H       2      m2     0.0000
    220 H           33.5810    31.1725   -19.8914 H       2      m2     0.0000
    221 H           32.2801    33.1028   -19.2645 H       2      m2     0.0000
    222 H           34.5058    33.4181   -15.6870 H       2      m2     0.0000
    223 H           35.7922    31.5140   -16.3008 H       2      m2     0.0000
    224 H           33.1080    35.3039   -16.4219 H       2      m2     0.0000
    225 H           32.1952    35.1868   -17.9323 H       2      m2     0.0000
    226 H           30.0434    33.9888   -17.9765 H       2      m2     0.0000
    227 H           28.1117    33.2595   -16.7326 H       2      m2     0.0000
    228 H           30.3520    33.4805   -13.1505 H       2      m2     0.0000
    229 H           32.2551    34.2003   -14.3826 H       2      m2     0.0000
    230 H           28.6846    31.9533   -12.5399 H       2      m2     0.0000
    231 H           28.1700    33.6944   -12.3360 H       2      m2     0.0000
    232 H           26.2200    31.2455   -12.7540 H       2      m2     0.0000
    233 H           24.6089    32.8135   -11.6630 H       2      m2     0.0000
    234 H           25.9157    34.1440   -11.6116 H       2      m2     0.0000
    235 C          -15.5932    -1.4093   -16.6708 C       1      m1     0.0000
    236 C          -16.0033    -1.2369   -15.3924 C       1      m1     0.0000
    237 C          -16.3216    -0.0090   -14.9277 C       1      m1     0.0000
    238 C          -16.2131     1.0236   -15.7860 C       1      m1     0.0000
    239 C          -15.8116     0.9024   -17.0605 C       1      m1     0.0000
    240 C          -15.5035    -0.3369   -17.4862 C       1      m1     0.0000
    241 C          -15.7075     2.1056   -17.9869 C       1      m1     0.0000
    242 C          -16.0786     3.4832   -17.4193 C       1      m1     0.0000
    243 C          -16.7998     0.3864   -13.5307 C       1      m1     0.0000
    244 C          -16.9998    -0.6117   -12.3855 C       1      m1     0.0000
    245 C          -15.2222    -2.7703   -17.2463 C       1      m1     0.0000
    246 N          -15.1198    -0.4862   -18.6879 N       1      m1     0.0000
    247 N          -16.0815    -2.2560   -14.6415 N       1      m1     0.0000
    248 H          -16.4724     2.0239   -15.4075 H       1      m1     0.0000
    249 H          -14.6535     2.1702   -18.3525 H       1      m1     0.0000
    250 H          -16.3680     1.9210   -18.8691 H       1      m1     0.0000
    251 H          -15.9591     4.2729   -18.1972 H       1      m1     0.0000
    252 H          -17.1412     3.5201   -17.0862 H       1      m1     0.0000
    253 H          -15.4200     3.7702   -16.5678 H       1      m1     0.0000
    254 H          -16.0790     1.1536   -13.1514 H       1      m1     0.0000
    255 H          -17.7815     0.9064   -13.6642 H       1      m1     0.0000
    256 H          -17.3526    -0.0841   -11.4686 H       1      m1     0.0000
    257 H          -17.7844    -1.3661   -12.6226 H       1      m1     0.0000
    258 H          -16.0475    -1.1139   -12.0994 H       1      m1     0.0000
    259 H          -15.3002    -3.6408   -16.5667 H       1      m1     0.0000
    260 H          -15.8829    -3.0158   -18.1092 H       1      m1     0.0000
    261 H          -14.1628    -2.7658   -17.5915 H       1      m1     0.0000
    262 H          -14.8663    -1.4251   -19.0772 H       1      m1     0.0000
    263 H          -15.0405     0.3272   -19.3436 H       1      m1     0.0000
    264 H          -16.3867    -2.2150   -13.6476 H       1      m1     0.0000
    265 H          -15.8460    -3.2238   -14.9563 H       1      m1     0.0000
    266 O           12.2318    20.8831    -4.4726 O       2      m2     0.0000
    267 C           12.2362    21.3192    -2.9958 C       2      m2     0.0000
    268 C           13.4799    21.1306    -3.6057 C       2      m2     0.0000
    269 C           14.2180    19.8101    -3.4127 C       2      m2     0.0000
    270 O           15.2481    19.9877    -2.4622 O       2      m2     0.0000
    271 C           16.0554    18.9228    -2.1410 C       2      m2     0.0000
    272 C           16.9988    19.0909    -1.1939 C       2      m2     0.0000
    273 C           17.8272    18.1065    -0.8147 C       2      m2     0.0000
    274 C           17.7473    16.8889    -1.3755 C       2      m2     0.0000
    275 C           16.8082    16.6992    -2.3169 C       2      m2     0.0000
    276 C           15.9846    17.6924    -2.6878 C       2      m2     0.0000
    277 C           18.6697    15.7690    -0.9497 C       2      m2     0.0000
    278 C           18.0510    15.0171     0.2070 C       2      m2     0.0000
    279 C           18.2954    15.3722     1.4788 C       2      m2     0.0000
    280 C           17.7346    14.7025     2.4967 C       2      m2     0.0000
    281 C           16.9072    13.6557     2.3103 C       2      m2     0.0000
    282 C           16.6703    13.3153     1.0273 C       2      m2     0.0000
    283 C           17.2257    13.9779     0.0001 C       2      m2     0.0000
    284 O           16.3782    13.0301     3.4138 O       2      m2     0.0000
    285 C           15.5108    11.9296     3.2332 C       2      m2     0.0000
    286 C           15.0309    11.4398     4.5954 C       2      m2     0.0000
    287 C           15.6002    10.2916     5.1536 C       2      m2     0.0000
    288 O           14.2636    10.1182     4.4088 O       2      m2     0.0000
    289 H           11.8078    22.3191    -2.9357 H       2      m2     0.0000
    290 H           11.7717    20.5303    -2.4067 H       2      m2     0.0000
    291 H           14.0504    21.9839    -3.9860 H       2      m2     0.0000
    292 H           13.5285    19.0122    -3.0528 H       2      m2     0.0000
    293 H           14.6635    19.5182    -4.3921 H       2      m2     0.0000
    294 H           17.0938    20.0778    -0.7089 H       2      m2     0.0000
    295 H           18.5781    18.3030    -0.0317 H       2      m2     0.0000
    296 H           16.7076    15.7097    -2.7934 H       2      m2     0.0000
    297 H           15.2406    17.4572    -3.4652 H       2      m2     0.0000
    298 H           18.8684    15.0791    -1.8017 H       2      m2     0.0000
    299 H           19.6681    16.1734    -0.6653 H       2      m2     0.0000
    300 H           18.9616    16.2240     1.6938 H       2      m2     0.0000
    301 H           17.9594    15.0238     3.5285 H       2      m2     0.0000
    302 H           16.0047    12.4748     0.7751 H       2      m2     0.0000
    303 H           16.9965    13.6622    -1.0316 H       2      m2     0.0000
    304 H           14.6179    12.2535     2.6495 H       2      m2     0.0000
    305 H           16.0556    11.1267     2.6856 H       2      m2     0.0000
    306 H           14.4555    12.1354     5.2147 H       2      m2     0.0000
    307 H           15.4351    10.0609     6.2054 H       2      m2     0.0000
    308 H           16.3622     9.7245     4.6218 H       2      m2     0.0000
    309 O          -33.5675    -6.4421   -35.7536 O       2      m2     0.0000
    310 C          -32.0745    -6.0708   -35.8178 C       2      m2     0.0000
    311 C          -32.6355    -6.2276   -34.5470 C       2      m2     0.0000
    312 C          -33.1010    -4.9976   -33.7749 C       2      m2     0.0000
    313 O          -32.1428    -4.6786   -32.7868 O       2      m2     0.0000
    314 C          -32.3652    -3.6048   -31.9585 C       2      m2     0.0000
    315 C          -31.4190    -3.2786   -31.0566 C       2      m2     0.0000
    316 C          -31.5498    -2.2449   -30.2120 C       2      m2     0.0000
    317 C          -32.6521    -1.4781   -30.2321 C       2      m2     0.0000
    318 C          -33.6041    -1.7828   -31.1292 C       2      m2     0.0000
    319 C          -33.4615    -2.8199   -31.9697 C       2      m2     0.0000
    320 C          -32.8067    -0.3049   -29.2910 C       2      m2     0.0000
    321 C          -32.2197     0.9345   -29.9278 C       2      m2     0.0000
    322 C          -30.9328     1.2699   -29.7421 C       2      m2     0.0000
    323 C          -30.4210     2.3676   -30.3186 C       2      m2     0.0000
    324 C          -31.1503     3.1832   -31.1047 C       2      m2     0.0000
    325 C          -32.4391     2.8293   -31.2831 C       2      m2     0.0000
    326 C          -32.9627     1.7332   -30.7113 C       2      m2     0.0000
    327 O          -30.5410     4.2859   -31.6540 O       2      m2     0.0000
    328 C          -31.2944     5.1511   -32.4787 C       2      m2     0.0000
    329 C          -30.3911     6.2672   -32.9929 C       2      m2     0.0000
    330 C          -30.4630     7.5350   -32.4084 C       2      m2     0.0000
    331 O          -31.2566     7.3193   -33.7102 O       2      m2     0.0000
    332 H          -31.5381    -6.8988   -36.2797 H       2      m2     0.0000
    333 H          -31.9878    -5.0882   -36.2785 H       2      m2     0.0000
    334 H          -32.5047    -7.1611   -33.9903 H       2      m2     0.0000
    335 H          -33.2272    -4.1214   -34.4514 H       2      m2     0.0000
    336 H          -34.0709    -5.2456   -33.2843 H       2      m2     0.0000
    337 H          -30.4979    -3.8850   -31.0111 H       2      m2     0.0000
    338 H          -30.7397    -2.0246   -29.4972 H       2      m2     0.0000
    339 H          -34.5196    -1.1698   -31.1805 H       2      m2     0.0000
    340 H          -34.2859    -3.0041   -32.6766 H       2      m2     0.0000
    341 H          -33.8798    -0.1429   -29.0390 H       2      m2     0.0000
    342 H          -32.3093    -0.5184   -28.3172 H       2      m2     0.0000
    343 H          -30.2850     0.6383   -29.1118 H       2      m2     0.0000
    344 H          -29.3589     2.6108   -30.1426 H       2      m2     0.0000
    345 H          -33.1131     3.4323   -31.9117 H       2      m2     0.0000
    346 H          -34.0222     1.4851   -30.8920 H       2      m2     0.0000
    347 H          -31.6766     4.5841   -33.3592 H       2      m2     0.0000
    348 H          -32.1457     5.5616   -31.8887 H       2      m2     0.0000
    349 H          -29.5338     5.9859   -33.6127 H       2      m2     0.0000
    350 H          -29.6812     8.2678   -32.6048 H       2      m2     0.0000
    351 H          -31.1712     7.7482   -31.6095 H       2      m2     0.0000
    352 C           30.7033    31.0562     0.1716 C       1      m1     0.0000
    353 C           30.6795    32.3883    -0.0675 C       1      m1     0.0000
    354 C           31.8275    33.0888    -0.1951 C       1      m1     0.0000
    355 C           32.9834    32.4077    -0.0747 C       1      m1     0.0000
    356 C           33.0576    31.0890     0.1618 C       1      m1     0.0000
    357 C           31.8923    30.4261     0.2827 C       1      m1     0.0000
    358 C           34.3933    30.3703     0.2886 C       1      m1     0.0000
    359 C           35.6742    31.2033     0.1368 C       1      m1     0.0000
    360 C           32.0069    34.5829    -0.4636 C       1      m1     0.0000
    361 C           30.8415    35.5623    -0.6376 C       1      m1     0.0000
    362 C           29.4400    30.2183     0.3241 C       1      m1     0.0000
    363 N           31.9273    29.1763     0.5070 N       1      m1     0.0000
    364 N           29.5533    32.9628    -0.1688 N       1      m1     0.0000
    365 H           33.9188    32.9782    -0.1787 H       1      m1     0.0000
    366 H           34.4303    29.8844     1.2941 H       1      m1     0.0000
    367 H           34.4273    29.5649    -0.4852 H       1      m1     0.0000
    368 H           36.5767    30.5588     0.2509 H       1      m1     0.0000
    369 H           35.7431    31.6753    -0.8700 H       1      m1     0.0000
    370 H           35.7461    31.9960     0.9163 H       1      m1     0.0000
    371 H           32.6285    34.9859     0.3750 H       1      m1     0.0000
    372 H           32.6256    34.6688    -1.3919 H       1      m1     0.0000
    373 H           31.2254    36.5927    -0.8232 H       1      m1     0.0000
    374 H           30.2126    35.3087    -1.5213 H       1      m1     0.0000
    375 H           30.2155    35.6324     0.2812 H       1      m1     0.0000
    376 H           28.4723    30.7478     0.2309 H       1      m1     0.0000
    377 H           29.4110    29.4216    -0.4543 H       1      m1     0.0000
    378 H           29.4141    29.7417     1.3308 H       1      m1     0.0000
    379 H           31.0546    28.6061     0.6107 H       1      m1     0.0000
    380 H           32.8348    28.6604     0.5981 H       1      m1     0.0000
    381 H           29.4424    33.9811    -0.3513 H       1      m1     0.0000
    382 H           28.6406    32.4629    -0.0775 H       1      m1     0.0000
    383 O          -37.5973   -31.3236    -5.1246 O       2      m2     0.0000
    384 C          -38.1124   -31.2484    -3.6754 C       2      m2     0.0000
    385 C          -37.1401   -30.3175    -4.0525 C       2      m2     0.0000
    386 C          -35.6764   -30.5831    -3.7169 C       2      m2     0.0000
    387 O          -35.3057   -29.8004    -2.6006 O       2      m2     0.0000
    388 C          -34.0168   -29.8720    -2.1293 C       2      m2     0.0000
    389 C          -33.6906   -29.1620    -1.0317 C       2      m2     0.0000
    390 C          -32.4591   -29.1754    -0.5005 C       2      m2     0.0000
    391 C          -31.4819   -29.9124    -1.0530 C       2      m2     0.0000
    392 C          -31.7890   -30.6331    -2.1441 C       2      m2     0.0000
    393 C          -33.0256   -30.6117    -2.6663 C       2      m2     0.0000
    394 C          -30.0923   -29.9424    -0.4578 C       2      m2     0.0000
    395 C          -30.0103   -31.0400     0.5789 C       2      m2     0.0000
    396 C          -30.2924   -30.8010     1.8698 C       2      m2     0.0000
    397 C          -30.2238   -31.7845     2.7793 C       2      m2     0.0000
    398 C          -29.8772   -33.0468     2.4605 C       2      m2     0.0000
    399 C          -29.6009   -33.2695     1.1596 C       2      m2     0.0000
    400 C          -29.6660   -32.2933     0.2402 C       2      m2     0.0000
    401 O          -29.8342   -33.9899     3.4594 O       2      m2     0.0000
    402 C          -29.4702   -35.3171     3.1398 C       2      m2     0.0000
    403 C          -29.5351   -36.1729     4.4005 C       2      m2     0.0000
    404 C          -28.3522   -36.5122     5.0636 C       2      m2     0.0000
    405 O          -28.9356   -37.5577     4.0952 O       2      m2     0.0000
    406 H          -39.1662   -30.9735    -3.7034 H       2      m2     0.0000
    407 H          -37.8412   -32.1734    -3.1694 H       2      m2     0.0000
    408 H          -37.4227   -29.2983    -4.3349 H       2      m2     0.0000
    409 H          -35.5070   -31.6578    -3.4764 H       2      m2     0.0000
    410 H          -35.0616   -30.2863    -4.5983 H       2      m2     0.0000
    411 H          -34.4680   -28.5452    -0.5485 H       2      m2     0.0000
    412 H          -32.2524   -28.5756     0.4012 H       2      m2     0.0000
    413 H          -31.0140   -31.2571    -2.6199 H       2      m2     0.0000
    414 H          -33.1983   -31.2308    -3.5609 H       2      m2     0.0000
    415 H          -29.3282   -30.0994    -1.2533 H       2      m2     0.0000
    416 H          -29.8410   -28.9560    -0.0051 H       2      m2     0.0000
    417 H          -30.5862   -29.7878     2.1903 H       2      m2     0.0000
    418 H          -30.4628   -31.5496     3.8310 H       2      m2     0.0000
    419 H          -29.3113   -34.2703     0.8026 H       2      m2     0.0000
    420 H          -29.4341   -32.5281    -0.8123 H       2      m2     0.0000
    421 H          -30.1962   -35.7333     2.4032 H       2      m2     0.0000
    422 H          -28.4437   -35.3154     2.7066 H       2      m2     0.0000
    423 H          -30.5039   -36.2739     4.9000 H       2      m2     0.0000
    424 H          -28.3943   -36.9225     6.0718 H       2      m2     0.0000
    425 H          -27.3821   -36.1987     4.6818 H       2      m2     0.0000
    426 O           18.7993    -5.7786    11.8987 O       2      m2     0.0000
    427 C           17.2953    -5.5562    11.6542 C       2      m2     0.0000
    428 C           18.1449    -4.4732    11.4104 C       2      m2     0.0000
    429 C           18.3207    -3.4012    12.4808 C       2      m2     0.0000
    430 O           17.5577    -2.2648    12.1305 O       2      m2     0.0000
    431 C           17.5778    -1.1638    12.9527 C       2      m2     0.0000
    432 C           16.8041    -0.1074    12.6357 C       2      m2     0.0000
    433 C           16.7580     1.0060    13.3822 C       2      m2     0.0000
    434 C           17.4965     1.1142    14.4986 C       2      m2     0.0000
    435 C           18.2692     0.0686    14.8357 C       2      m2     0.0000
    436 C           18.3067    -1.0407    14.0804 C       2      m2     0.0000
    437 C           17.4459     2.3607    15.3528 C       2      m2     0.0000
    438 C           16.3432     2.2259    16.3786 C       2      m2     0.0000
    439 C           15.0955     2.6490    16.1194 C       2      m2     0.0000
    440 C           14.1236     2.5169    17.0342 C       2      m2     0.0000
    441 C           14.3339     1.9614    18.2435 C       2      m2     0.0000
    442 C           15.5914     1.5390    18.4853 C       2      m2     0.0000
    443 C           16.5725     1.6658    17.5776 C       2      m2     0.0000
    444 O           13.2773     1.8671    19.1174 O       2      m2     0.0000
    445 C           13.4840     1.2887    20.3898 C       2      m2     0.0000
    446 C           12.1624     1.2639    21.1506 C       2      m2     0.0000
    447 C           11.9242     2.2146    22.1473 C       2      m2     0.0000
    448 O           12.4314     0.8344    22.6044 O       2      m2     0.0000
    449 H           16.9864    -6.1992    10.8309 H       2      m2     0.0000
    450 H           16.7765    -5.6629    12.6054 H       2      m2     0.0000
    451 H           18.4697    -4.2366    10.3921 H       2      m2     0.0000
    452 H           17.9844    -3.7684    13.4775 H       2      m2     0.0000
    453 H           19.4003    -3.1258    12.5183 H       2      m2     0.0000
    454 H           16.1816    -0.1598    11.7258 H       2      m2     0.0000
    455 H           16.1030     1.8375    13.0735 H       2      m2     0.0000
    456 H           18.8830     0.1183    15.7506 H       2      m2     0.0000
    457 H           18.9642    -1.8546    14.4246 H       2      m2     0.0000
    458 H           18.4259     2.5329    15.8541 H       2      m2     0.0000
    459 H           17.2827     3.2617    14.7181 H       2      m2     0.0000
    460 H           14.8616     3.1085    15.1447 H       2      m2     0.0000
    461 H           13.1103     2.8768    16.7848 H       2      m2     0.0000
    462 H           15.8593     1.0689    19.4446 H       2      m2     0.0000
    463 H           17.5839     1.3004    17.8229 H       2      m2     0.0000
    464 H           13.8303     0.2363    20.2665 H       2      m2     0.0000
    465 H           14.2520     1.8831    20.9359 H       2      m2     0.0000
    466 H           11.3380     0.6839    20.7236 H       2      m2     0.0000
    467 H           10.9158     2.3516    22.5361 H       2      m2     0.0000
    468 H           12.6758     2.9572    22.4093 H       2      m2     0.0000
    469 C          -30.7770   -16.9790     0.3842 C       1      m1     0.0000
    470 C          -31.2890   -16.8113    -0.8576 C       1      m1     0.0000
    471 C          -32.3183   -15.9631    -1.0727 C       1      m1     0.0000
    472 C          -32.8055   -15.3000    -0.0062 C       1      m1     0.0000
    473 C          -32.3318   -15.4329     1.2421 C       1      m1     0.0000
    474 C          -31.3061   -16.2871     1.4159 C       1      m1     0.0000
    475 C          -32.9219   -14.6572     2.4112 C       1      m1     0.0000
    476 C          -34.0906   -13.7037     2.1236 C       1      m1     0.0000
    477 C          -33.0275   -15.6401    -2.3877 C       1      m1     0.0000
    478 C          -32.6520   -16.2683    -3.7338 C       1      m1     0.0000
    479 C          -29.6179   -17.9215     0.6830 C       1      m1     0.0000
    480 N          -30.8341   -16.4362     2.5858 N       1      m1     0.0000
    481 N          -30.7790   -17.4696    -1.8141 N       1      m1     0.0000
    482 H          -33.6440   -14.6090    -0.1813 H       1      m1     0.0000
    483 H          -33.2749   -15.3949     3.1726 H       1      m1     0.0000
    484 H          -32.1042   -14.0507     2.8717 H       1      m1     0.0000
    485 H          -34.4264   -13.2014     3.0605 H       1      m1     0.0000
    486 H          -33.7995   -12.8958     1.4138 H       1      m1     0.0000
    487 H          -34.9748   -14.2453     1.7160 H       1      m1     0.0000
    488 H          -34.1116   -15.8679    -2.2305 H       1      m1     0.0000
    489 H          -32.9493   -14.5330    -2.5294 H       1      m1     0.0000
    490 H          -33.3116   -15.8752    -4.5426 H       1      m1     0.0000
    491 H          -31.6119   -16.0109    -4.0381 H       1      m1     0.0000
    492 H          -32.7978   -17.3727    -3.7332 H       1      m1     0.0000
    493 H          -29.1940   -18.4825    -0.1721 H       1      m1     0.0000
    494 H          -28.7605   -17.3527     1.1105 H       1      m1     0.0000
    495 H          -29.9349   -18.7012     1.4129 H       1      m1     0.0000
    496 H          -30.0367   -17.0860     2.7842 H       1      m1     0.0000
    497 H          -31.2241   -15.9129     3.4055 H       1      m1     0.0000
    498 H          -31.1097   -17.4021    -2.7983 H       1      m1     0.0000
    499 H          -29.9833   -18.1360    -1.6959 H       1      m1     0.0000
    500 O          -25.1995    35.0977    30.5151 O       2      m2     0.0000
    501 C          -25.1359    33.5635    30.6305 C       2      m2     0.0000
    502 C          -26.0090    34.0926    29.6755 C       2      m2     0.0000
    503 C          -27.4884    34.2443    30.0131 C       2      m2     0.0000
    504 O          -28.2150    33.1996    29.3992 O       2      m2     0.0000
    505 C          -29.5788    33.1464    29.5600 C       2      m2     0.0000
    506 C          -30.2532    32.1153    29.0147 C       2      m2     0.0000
    507 C          -31.5832    31.9810    29.1250 C       2      m2     0.0000
    508 C          -32.3106    32.8877    29.7975 C       2      m2     0.0000
    509 C          -31.6556    33.9195    30.3547 C       2      m2     0.0000
    510 C          -30.3240    34.0429    30.2376 C       2      m2     0.0000
    511 C          -33.8091    32.7419    29.9362 C       2      m2     0.0000
    512 C          -34.1253    31.9236    31.1677 C       2      m2     0.0000
    513 C          -34.2477    30.5879    31.1037 C       2      m2     0.0000
    514 C          -34.5207    29.8716    32.2044 C       2      m2     0.0000
    515 C          -34.6834    30.4355    33.4171 C       2      m2     0.0000
    516 C          -34.5535    31.7769    33.4634 C       2      m2     0.0000
    517 C          -34.2806    32.5045    32.3687 C       2      m2     0.0000
    518 O          -34.9605    29.6220    34.4896 O       2      m2     0.0000
    519 C          -35.1357    30.2000    35.7668 C       2      m2     0.0000
    520 C          -35.3915    29.0956    36.7869 C       2      m2     0.0000
    521 C          -36.6943    28.8630    37.2373 C       2      m2     0.0000
    522 O          -35.7923    29.7374    38.1277 O       2      m2     0.0000
    523 H          -24.1383    33.2416    30.3340 H       2      m2     0.0000
    524 H          -25.4879    33.2820    31.6216 H       2      m2     0.0000
    525 H          -25.7172    34.1472    28.6218 H       2      m2     0.0000
    526 H          -27.6566    34.2025    31.1137 H       2      m2     0.0000
    527 H          -27.8351    35.2239    29.6095 H       2      m2     0.0000
    528 H          -29.6892    31.3489    28.4555 H       2      m2     0.0000
    529 H          -32.0797    31.1136    28.6594 H       2      m2     0.0000
    530 H          -32.2192    34.6791    30.9219 H       2      m2     0.0000
    531 H          -29.8608    34.9160    30.7238 H       2      m2     0.0000
    532 H          -34.2966    33.7419    29.9967 H       2      m2     0.0000
    533 H          -34.2399    32.2640    29.0267 H       2      m2     0.0000
    534 H          -34.1212    30.0694    30.1389 H       2      m2     0.0000
    535 H          -34.6140    28.7757    32.1122 H       2      m2     0.0000
    536 H          -34.6662    32.3271    34.4108 H       2      m2     0.0000
    537 H          -34.1802    33.5991    32.4605 H       2      m2     0.0000
    538 H          -34.2027    30.7334    36.0633 H       2      m2     0.0000
    539 H          -35.9889    30.9153    35.7252 H       2      m2     0.0000
    540 H          -34.6068    28.3472    36.9372 H       2      m2     0.0000
    541 H          -36.9245    27.9481    37.7819 H       2      m2     0.0000
    542 H          -37.5272    29.4736    36.8930 H       2      m2     0.0000
    543 O           -4.8332   -21.6547    33.6473 O       2      m2     0.0000
    544 C           -5.3840   -20.7036    32.5687 C       2      m2     0.0000
    545 C           -4.1572   -21.3197    32.3051 C       2      m2     0.0000
    546 C           -2.8624   -20.5618    32.5788 C       2      m2     0.0000
    547 O           -2.3385   -20.0803    31.3582 O       2      m2     0.0000
    548 C           -1.1596   -19.3740    31.3664 C       2      m2     0.0000
    549 C           -0.6987   -18.8741    30.2033 C       2      m2     0.0000
    550 C            0.4394   -18.1695    30.1186 C       2      m2     0.0000
    551 C            1.1803   -17.9293    31.2127 C       2      m2     0.0000
    552 C            0.7339   -18.4134    32.3834 C       2      m2     0.0000
    553 C           -0.4072   -19.1169    32.4554 C       2      m2     0.0000
    554 C            2.4603   -17.1287    31.1309 C       2      m2     0.0000
    555 C            2.1496   -15.6596    31.3078 C       2      m2     0.0000
    556 C            1.8788   -14.8732    30.2536 C       2      m2     0.0000
    557 C            1.5968   -13.5730    30.4235 C       2      m2     0.0000
    558 C            1.5662   -12.9881    31.6368 C       2      m2     0.0000
    559 C            1.8369   -13.7932    32.6841 C       2      m2     0.0000
    560 C            2.1206   -15.0960    32.5266 C       2      m2     0.0000
    561 O            1.2669   -11.6490    31.7148 O       2      m2     0.0000
    562 C            1.2334   -11.0222    32.9805 C       2      m2     0.0000
    563 C            0.8424    -9.5584    32.8056 C       2      m2     0.0000
    564 C            1.8290    -8.5702    32.8709 C       2      m2     0.0000
    565 O            1.0151    -8.8314    34.1517 O       2      m2     0.0000
    566 H           -6.3032   -21.1344    32.1734 H       2      m2     0.0000
    567 H           -5.4324   -19.7015    32.9914 H       2      m2     0.0000
    568 H           -4.1042   -22.2082    31.6678 H       2      m2     0.0000
    569 H           -3.0375   -19.6990    33.2617 H       2      m2     0.0000
    570 H           -2.1376   -21.2732    33.0385 H       2      m2     0.0000
    571 H           -1.2814   -19.0497    29.2824 H       2      m2     0.0000
    572 H            0.7647   -17.7830    29.1386 H       2      m2     0.0000
    573 H            1.3118   -18.2284    33.3044 H       2      m2     0.0000
    574 H           -0.7062   -19.4786    33.4519 H       2      m2     0.0000
    575 H            3.1863   -17.4697    31.9042 H       2      m2     0.0000
    576 H            2.9698   -17.3071    30.1563 H       2      m2     0.0000
    577 H            1.8849   -15.2965    29.2355 H       2      m2     0.0000
    578 H            1.3796   -12.9584    29.5328 H       2      m2     0.0000
    579 H            1.8327   -13.4064    33.7153 H       2      m2     0.0000
    580 H            2.3311   -15.7129    33.4164 H       2      m2     0.0000
    581 H            0.4593   -11.5118    33.6161 H       2      m2     0.0000
    582 H            2.2360   -11.1171    33.4569 H       2      m2     0.0000
    583 H           -0.1390    -9.3399    32.3727 H       2      m2     0.0000
    584 H            1.6080    -7.5600    32.5284 H       2      m2     0.0000
    585 H            2.8686    -8.8238    33.0708 H       2      m2     0.0000
    586 C           33.0375    -1.1173    16.5261 C       1      m1     0.0000
    587 C           33.3605     0.1463    16.1640 C       1      m1     0.0000
    588 C           32.4114     1.0070    15.7354 C       1      m1     0.0000
    589 C           31.1438     0.5541    15.6858 C       1      m1     0.0000
    590 C           30.7754    -0.6882    16.0339 C       1      m1     0.0000
    591 C           31.7495    -1.5160    16.4557 C       1      m1     0.0000
    592 C           29.3259    -1.1465    15.9579 C       1      m1     0.0000
    593 C           28.2786    -0.1372    15.4656 C       1      m1     0.0000
    594 C           32.5749     2.4591    15.2870 C       1      m1     0.0000
    595 C           33.9189     3.1943    15.2565 C       1      m1     0.0000
    596 C           34.0667    -2.1282    17.0161 C       1      m1     0.0000
    597 N           31.4343    -2.6995    16.7928 N       1      m1     0.0000
    598 N           34.5754     0.5027    16.2368 N       1      m1     0.0000
    599 H           30.3705     1.2552    15.3367 H       1      m1     0.0000
    600 H           29.2786    -2.0322    15.2783 H       1      m1     0.0000
    601 H           29.0139    -1.4776    16.9784 H       1      m1     0.0000
    602 H           27.2634    -0.5980    15.4580 H       1      m1     0.0000
    603 H           28.2203     0.7549    16.1304 H       1      m1     0.0000
    604 H           28.4859     0.1981    14.4236 H       1      m1     0.0000
    605 H           32.1636     2.5211    14.2483 H       1      m1     0.0000
    606 H           31.9007     3.0720    15.9364 H       1      m1     0.0000
    607 H           33.7808     4.2398    14.8938 H       1      m1     0.0000
    608 H           34.3690     3.2819    16.2716 H       1      m1     0.0000
    609 H           34.6372     2.7200    14.5493 H       1      m1     0.0000
    610 H           35.1189    -1.7880    17.0686 H       1      m1     0.0000
    611 H           33.8172    -2.4603    18.0500 H       1      m1     0.0000
    612 H           34.0824    -3.0170    16.3444 H       1      m1     0.0000
    613 H           32.1472    -3.3896    17.1290 H       1      m1     0.0000
    614 H           30.4433    -3.0370    16.7487 H       1      m1     0.0000
    615 H           34.9116     1.4531    15.9790 H       1      m1     0.0000
    616 H           35.3427    -0.1272    16.5618 H       1      m1     0.0000
    617 O          -34.3808    32.5190    -7.2188 O       2      m2     0.0000
    618 C          -34.4987    31.0887    -6.6604 C       2      m2     0.0000
    619 C          -35.1721    32.0984    -5.9668 C       2      m2     0.0000
    620 C          -34.5234    32.7260    -4.7375 C       2      m2     0.0000
    621 O          -35.1185    32.1907    -3.5732 O       2      m2     0.0000
    622 C          -34.6934    32.6272    -2.3413 C       2      m2     0.0000
    623 C          -35.2307    32.0699    -1.2386 C       2      m2     0.0000
    624 C          -34.8729    32.4310     0.0026 C       2      m2     0.0000
    625 C          -33.9456    33.3821     0.1996 C       2      m2     0.0000
    626 C          -33.3927    33.9449    -0.8874 C       2      m2     0.0000
    627 C          -33.7590    33.5747    -2.1248 C       2      m2     0.0000
    628 C          -33.5277    33.7910     1.5940 C       2      m2     0.0000
    629 C          -32.3860    32.9144     2.0568 C       2      m2     0.0000
    630 C          -32.6120    31.7715     2.7245 C       2      m2     0.0000
    631 C          -31.5914    30.9979     3.1232 C       2      m2     0.0000
    632 C          -30.3036    31.3118     2.8818 C       2      m2     0.0000
    633 C          -30.0954    32.4606     2.2073 C       2      m2     0.0000
    634 C          -31.1087    33.2432     1.8032 C       2      m2     0.0000
    635 O          -29.3232    30.4581     3.3279 O       2      m2     0.0000
    636 C          -27.9684    30.7758     3.0836 C       2      m2     0.0000
    637 C          -27.0842    29.6631     3.6368 C       2      m2     0.0000
    638 C          -26.4164    29.8537     4.8500 C       2      m2     0.0000
    639 O          -25.6130    30.1106     3.5617 O       2      m2     0.0000
    640 H          -35.0339    30.4823    -7.3902 H       2      m2     0.0000
    641 H          -33.5068    30.7599    -6.3550 H       2      m2     0.0000
    642 H          -36.2446    32.2591    -6.1166 H       2      m2     0.0000
    643 H          -33.4287    32.5201    -4.7106 H       2      m2     0.0000
    644 H          -34.7056    33.8252    -4.7753 H       2      m2     0.0000
    645 H          -35.9954    31.2833    -1.3605 H       2      m2     0.0000
    646 H          -35.3459    31.9367     0.8672 H       2      m2     0.0000
    647 H          -32.6214    34.7236    -0.7642 H       2      m2     0.0000
    648 H          -33.2584    34.0825    -2.9643 H       2      m2     0.0000
    649 H          -33.2288    34.8641     1.6151 H       2      m2     0.0000
    650 H          -34.3892    33.7162     2.2966 H       2      m2     0.0000
    651 H          -33.6458    31.4599     2.9478 H       2      m2     0.0000
    652 H          -31.8167    30.0658     3.6698 H       2      m2     0.0000
    653 H          -29.0768    32.7991     1.9606 H       2      m2     0.0000
    654 H          -30.8854    34.1715     1.2509 H       2      m2     0.0000
    655 H          -27.7951    30.8390     1.9842 H       2      m2     0.0000
    656 H          -27.7344    31.7530     3.5650 H       2      m2     0.0000
    657 H          -27.2036    28.6592     3.2169 H       2      m2     0.0000
    658 H          -25.9713    29.0023     5.3635 H       2      m2     0.0000
    659 H          -26.4946    30.7928     5.3951 H       2      m2     0.0000
    660 O            6.5042   -34.9772    34.6230 O       2      m2     0.0000
    661 C            6.3003   -33.5183    35.0718 C       2      m2     0.0000
    662 C            5.3006   -34.4334    35.4143 C       2      m2     0.0000
    663 C            4.0503   -34.5387    34.5474 C       2      m2     0.0000
    664 O            2.9843   -33.8653    35.1849 O       2      m2     0.0000
    665 C            1.7490   -33.8435    34.5831 C       2      m2     0.0000
    666 C            0.7550   -33.1526    35.1746 C       2      m2     0.0000
    667 C           -0.4796   -33.0736    34.6565 C       2      m2     0.0000
    668 C           -0.7803   -33.6929    33.5035 C       2      m2     0.0000
    669 C            0.1992   -34.3812    32.8945 C       2      m2     0.0000
    670 C            1.4313   -34.4526    33.4229 C       2      m2     0.0000
    671 C           -2.1661   -33.6035    32.9052 C       2      m2     0.0000
    672 C           -2.2496   -32.3933    32.0027 C       2      m2     0.0000
    673 C           -2.6425   -31.1989    32.4741 C       2      m2     0.0000
    674 C           -2.7053   -30.1305    31.6657 C       2      m2     0.0000
    675 C           -2.3828   -30.1875    30.3588 C       2      m2     0.0000
    676 C           -1.9871   -31.3935    29.9035 C       2      m2     0.0000
    677 C           -1.9204   -32.4700    30.7029 C       2      m2     0.0000
    678 O           -2.4768   -29.0409    29.6069 O       2      m2     0.0000
    679 C           -2.1438   -29.0867    28.2346 C       2      m2     0.0000
    680 C           -2.2902   -27.6918    27.6357 C       2      m2     0.0000
    681 C           -3.4162   -27.3885    26.8648 C       2      m2     0.0000
    682 O           -2.1363   -27.7863    26.1068 O       2      m2     0.0000
    683 H            7.0801   -33.2723    35.7917 H       2      m2     0.0000
    684 H            6.2153   -32.8973    34.1817 H       2      m2     0.0000
    685 H            5.2666   -34.8744    36.4157 H       2      m2     0.0000
    686 H            4.2163   -34.0831    33.5442 H       2      m2     0.0000
    687 H            3.7954   -35.6187    34.4403 H       2      m2     0.0000
    688 H            0.9646   -32.6288    36.1233 H       2      m2     0.0000
    689 H           -1.2517   -32.4904    35.1850 H       2      m2     0.0000
    690 H           -0.0088   -34.8956    31.9413 H       2      m2     0.0000
    691 H            2.1795   -35.0353    32.8627 H       2      m2     0.0000
    692 H           -2.4088   -34.5309    32.3375 H       2      m2     0.0000
    693 H           -2.9348   -33.5465    33.7096 H       2      m2     0.0000
    694 H           -2.9154   -31.0895    33.5368 H       2      m2     0.0000
    695 H           -3.0330   -29.1654    32.0895 H       2      m2     0.0000
    696 H           -1.7004   -31.5379    28.8500 H       2      m2     0.0000
    697 H           -1.5865   -33.4335    30.2823 H       2      m2     0.0000
    698 H           -1.0799   -29.4001    28.1218 H       2      m2     0.0000
    699 H           -2.8140   -29.8162    27.7248 H       2      m2     0.0000
    700 H           -1.6576   -26.8941    28.0381 H       2      m2     0.0000
    701 H           -3.6450   -26.3511    26.6238 H       2      m2     0.0000
    702 H           -4.1789   -28.1383    26.6617 H       2      m2     0.0000
    703 C           30.7809   -15.8011    17.0372 C       1      m1     0.0000
    704 C           31.4817   -16.9453    16.8584 C       1      m1     0.0000
    705 C           32.4886   -17.0065    15.9599 C       1      m1     0.0000
    706 C           32.7594   -15.8888    15.2585 C       1      m1     0.0000
    707 C           32.0935   -14.7326    15.4005 C       1      m1     0.0000
    708 C           31.0973   -14.7114    16.3055 C       1      m1     0.0000
    709 C           32.4431   -13.4991    14.5800 C       1      m1     0.0000
    710 C           33.5943   -13.6111    13.5700 C       1      m1     0.0000
    711 C           33.3880   -18.1938    15.6164 C       1      m1     0.0000
    712 C           33.2719   -19.5696    16.2807 C       1      m1     0.0000
    713 C           29.6369   -15.6768    18.0357 C       1      m1     0.0000
    714 N           30.4467   -13.6320    16.4644 N       1      m1     0.0000
    715 N           31.1701   -17.9584    17.5548 N       1      m1     0.0000
    716 H           33.5797   -15.9384    14.5265 H       1      m1     0.0000
    717 H           31.5313   -13.1922    14.0116 H       1      m1     0.0000
    718 H           32.7019   -12.6746    15.2884 H       1      m1     0.0000
    719 H           33.7454   -12.6425    13.0390 H       1      m1     0.0000
    720 H           34.5595   -13.8564    14.0694 H       1      m1     0.0000
    721 H           33.3843   -14.3759    12.7876 H       1      m1     0.0000
    722 H           33.2788   -18.3698    14.5168 H       1      m1     0.0000
    723 H           34.4413   -17.8560    15.7845 H       1      m1     0.0000
    724 H           34.0353   -20.2673    15.8635 H       1      m1     0.0000
    725 H           33.4705   -19.5216    17.3758 H       1      m1     0.0000
    726 H           32.2846   -20.0460    16.0824 H       1      m1     0.0000
    727 H           29.3882   -16.5779    18.6288 H       1      m1     0.0000
    728 H           29.8679   -14.8887    18.7887 H       1      m1     0.0000
    729 H           28.6935   -15.4074    17.5078 H       1      m1     0.0000
    730 H           29.6611   -13.5534    17.1530 H       1      m1     0.0000
    731 H           30.6695   -12.7706    15.9111 H       1      m1     0.0000
    732 H           31.6548   -18.8763    17.4823 H       1      m1     0.0000
    733 H           30.4001   -17.9584    18.2607 H       1      m1     0.0000
    734 O          -31.2016     5.3542    -5.3612 O       2      m2     0.0000
    735 C          -32.6475     5.2511    -4.8417 C       2      m2     0.0000
    736 C          -31.6505     5.5106    -3.8968 C       2      m2     0.0000
    737 C          -31.0750     4.3604    -3.0774 C       2      m2     0.0000
    738 O          -31.6389     4.3844    -1.7821 O       2      m2     0.0000
    739 C          -31.2508     3.4383    -0.8639 C       2      m2     0.0000
    740 C          -31.8356     3.4391     0.3498 C       2      m2     0.0000
    741 C          -31.5220     2.5511     1.3049 C       2      m2     0.0000
    742 C          -30.5934     1.6063     1.0847 C       2      m2     0.0000
    743 C          -30.0039     1.5845    -0.1220 C       2      m2     0.0000
    744 C          -30.3265     2.4785    -1.0700 C       2      m2     0.0000
    745 C          -30.2382     0.5945     2.1506 C       2      m2     0.0000
    746 C          -31.1484    -0.6068     2.0303 C       2      m2     0.0000
    747 C          -32.3091    -0.6711     2.7025 C       2      m2     0.0000
    748 C          -33.1122    -1.7386     2.5818 C       2      m2     0.0000
    749 C          -32.8118    -2.7892     1.7938 C       2      m2     0.0000
    750 C          -31.6447    -2.7061     1.1237 C       2      m2     0.0000
    751 C          -30.8325    -1.6431     1.2364 C       2      m2     0.0000
    752 O          -33.6959    -3.8396     1.7317 O       2      m2     0.0000
    753 C          -33.3926    -4.9490     0.9110 C       2      m2     0.0000
    754 C          -34.5375    -5.9539     0.9820 C       2      m2     0.0000
    755 C          -34.3985    -7.1010     1.7687 C       2      m2     0.0000
    756 O          -34.1120    -7.2470     0.2628 O       2      m2     0.0000
    757 H          -33.2203     6.0749    -5.2659 H       2      m2     0.0000
    758 H          -33.0026     4.2380    -5.0228 H       2      m2     0.0000
    759 H          -31.4673     6.5308    -3.5443 H       2      m2     0.0000
    760 H          -31.2997     3.3770    -3.5506 H       2      m2     0.0000
    761 H          -29.9723     4.5074    -3.0045 H       2      m2     0.0000
    762 H          -32.6050     4.1999     0.5676 H       2      m2     0.0000
    763 H          -32.0370     2.5996     2.2787 H       2      m2     0.0000
    764 H          -29.2426     0.8173    -0.3417 H       2      m2     0.0000
    765 H          -29.7994     2.3938    -2.0334 H       2      m2     0.0000
    766 H          -29.1715     0.2863     2.0589 H       2      m2     0.0000
    767 H          -30.3222     1.0501     3.1638 H       2      m2     0.0000
    768 H          -32.6108     0.1608     3.3603 H       2      m2     0.0000
    769 H          -34.0582    -1.7553     3.1503 H       2      m2     0.0000
    770 H          -31.3150    -3.5148     0.4525 H       2      m2     0.0000
    771 H          -29.8901    -1.6218     0.6636 H       2      m2     0.0000
    772 H          -33.2956    -4.6115    -0.1471 H       2      m2     0.0000
    773 H          -32.4360    -5.4032     1.2572 H       2      m2     0.0000
    774 H          -35.5247    -5.6288     0.6384 H       2      m2     0.0000
    775 H          -35.2737    -7.7039     2.0078 H       2      m2     0.0000
    776 H          -33.4770    -7.3040     2.3116 H       2      m2     0.0000
    777 O          -13.6335   -11.0575    -5.2934 O       2      m2     0.0000
    778 C          -15.1658   -11.2086    -5.2709 C       2      m2     0.0000
    779 C          -14.5496   -10.8116    -4.0806 C       2      m2     0.0000
    780 C          -14.2433   -11.8535    -3.0099 C       2      m2     0.0000
    781 O          -15.2070   -11.7602    -1.9810 O       2      m2     0.0000
    782 C          -15.1169   -12.6027    -0.8990 C       2      m2     0.0000
    783 C          -16.0724   -12.5404     0.0488 C       2      m2     0.0000
    784 C          -16.0666   -13.3268     1.1354 C       2      m2     0.0000
    785 C          -15.0878   -14.2263     1.3256 C       2      m2     0.0000
    786 C          -14.1294   -14.3088     0.3881 C       2      m2     0.0000
    787 C          -14.1463   -13.5163    -0.6954 C       2      m2     0.0000
    788 C          -15.0756   -15.1244     2.5419 C       2      m2     0.0000
    789 C          -15.8546   -16.3861     2.2462 C       2      m2     0.0000
    790 C          -17.1702   -16.4683     2.5022 C       2      m2     0.0000
    791 C          -17.8524   -17.5902     2.2283 C       2      m2     0.0000
    792 C          -17.2729   -18.6803     1.6889 C       2      m2     0.0000
    793 C          -15.9525   -18.5788     1.4351 C       2      m2     0.0000
    794 C          -15.2589   -17.4614     1.7049 C       2      m2     0.0000
    795 O          -18.0514   -19.7856     1.4417 O       2      m2     0.0000
    796 C          -17.4565   -20.9365     0.8782 C       2      m2     0.0000
    797 C          -18.5267   -22.0021     0.6659 C       2      m2     0.0000
    798 C          -18.6209   -23.0709     1.5620 C       2      m2     0.0000
    799 O          -17.8445   -23.3199     0.2558 O       2      m2     0.0000
    800 H          -15.5908   -10.4593    -5.9377 H       2      m2     0.0000
    801 H          -15.4075   -12.2532    -5.4594 H       2      m2     0.0000
    802 H          -14.5272    -9.7568    -3.7882 H       2      m2     0.0000
    803 H          -14.2657   -12.8841    -3.4329 H       2      m2     0.0000
    804 H          -13.2333   -11.6324    -2.5930 H       2      m2     0.0000
    805 H          -16.8945   -11.8141    -0.0735 H       2      m2     0.0000
    806 H          -16.8778   -13.2321     1.8760 H       2      m2     0.0000
    807 H          -13.3141   -15.0420     0.5065 H       2      m2     0.0000
    808 H          -13.3258   -13.6455    -1.4188 H       2      m2     0.0000
    809 H          -14.0299   -15.3717     2.8365 H       2      m2     0.0000
    810 H          -15.5070   -14.5945     3.4218 H       2      m2     0.0000
    811 H          -17.7004   -15.6065     2.9401 H       2      m2     0.0000
    812 H          -18.9327   -17.6201     2.4528 H       2      m2     0.0000
    813 H          -15.3921   -19.4169     0.9916 H       2      m2     0.0000
    814 H          -14.1807   -17.4276     1.4747 H       2      m2     0.0000
    815 H          -17.0234   -20.6803    -0.1166 H       2      m2     0.0000
    816 H          -16.6558   -21.3004     1.5621 H       2      m2     0.0000
    817 H          -19.3529   -21.7682    -0.0130 H       2      m2     0.0000
    818 H          -19.5059   -23.7060     1.5574 H       2      m2     0.0000
    819 H          -17.9269   -23.1712     2.3948 H       2      m2     0.0000
    820 C          -16.1106    33.1026    33.1721 C       1      m1     0.0000
    821 C          -14.9689    32.7341    32.5451 C       1      m1     0.0000
    822 C          -14.9855    31.7968    31.5724 C       1      m1     0.0000
    823 C          -16.1773    31.2525    31.2593 C       1      m1     0.0000
    824 C          -17.3343    31.5849    31.8518 C       1      m1     0.0000
    825 C          -17.2766    32.5225    32.8160 C       1      m1     0.0000
    826 C          -18.6535    30.9363    31.4571 C       1      m1     0.0000
    827 C          -18.6284    29.8758    30.3469 C       1      m1     0.0000
    828 C          -13.8146    31.2514    30.7550 C       1      m1     0.0000
    829 C          -12.3650    31.7160    30.9300 C       1      m1     0.0000
    830 C          -16.1491    34.1532    34.2747 C       1      m1     0.0000
    831 N          -18.3545    32.8600    33.3973 N       1      m1     0.0000
    832 N          -13.8834    33.2900    32.8930 N       1      m1     0.0000
    833 H          -16.1909    30.4889    30.4668 H       1      m1     0.0000
    834 H          -19.0876    30.4544    32.3670 H       1      m1     0.0000
    835 H          -19.3515    31.7446    31.1285 H       1      m1     0.0000
    836 H          -19.6544    29.4833    30.1566 H       1      m1     0.0000
    837 H          -18.2623    30.2962    29.3823 H       1      m1     0.0000
    838 H          -17.9975    29.0009    30.6257 H       1      m1     0.0000
    839 H          -13.8061    30.1432    30.9089 H       1      m1     0.0000
    840 H          -14.0681    31.4242    29.6790 H       1      m1     0.0000
    841 H          -11.6958    31.1731    30.2221 H       1      m1     0.0000
    842 H          -12.2429    32.7978    30.6944 H       1      m1     0.0000
    843 H          -11.9756    31.4908    31.9491 H       1      m1     0.0000
    844 H          -15.1860    34.6205    34.5566 H       1      m1     0.0000
    845 H          -16.8062    35.0015    33.9745 H       1      m1     0.0000
    846 H          -16.5420    33.7072    35.2171 H       1      m1     0.0000
    847 H          -18.3739    33.5834    34.1548 H       1      m1     0.0000
    848 H          -19.2741    32.4273    33.1423 H       1      m1     0.0000
    849 H          -12.9614    33.0677    32.4651 H       1      m1     0.0000
    850 H          -13.8218    34.0187    33.6389 H       1      m1     0.0000
    851 O           21.9110    11.6841    29.8832 O       2      m2     0.0000
    852 C           22.3285    12.8443    30.8056 C       2      m2     0.0000
    853 C           21.3688    11.9554    31.2985 C       2      m2     0.0000
    854 C           19.8904    12.3170    31.2009 C       2      m2     0.0000
    855 O           19.4351    12.7574    32.4638 O       2      m2     0.0000
    856 C           18.1191    13.1251    32.6116 C       2      m2     0.0000
    857 C           17.7105    13.5943    33.8066 C       2      m2     0.0000
    858 C           16.4470    13.9798    34.0392 C       2      m2     0.0000
    859 C           15.5199    13.9120    33.0701 C       2      m2     0.0000
    860 C           15.9093    13.4535    31.8692 C       2      m2     0.0000
    861 C           17.1770    13.0709    31.6485 C       2      m2     0.0000
    862 C           14.0948    14.3522    33.3181 C       2      m2     0.0000
    863 C           13.9619    15.8277    33.0158 C       2      m2     0.0000
    864 C           14.1547    16.7539    33.9687 C       2      m2     0.0000
    865 C           14.0417    18.0604    33.6869 C       2      m2     0.0000
    866 C           13.7364    18.5149    32.4559 C       2      m2     0.0000
    867 C           13.5499    17.5714    31.5108 C       2      m2     0.0000
    868 C           13.6601    16.2609    31.7808 C       2      m2     0.0000
    869 O           13.6425    19.8720    32.2598 O       2      m2     0.0000
    870 C           13.3210    20.3626    30.9745 C       2      m2     0.0000
    871 C           13.3162    21.8874    31.0059 C       2      m2     0.0000
    872 C           12.0976    22.5709    31.0512 C       2      m2     0.0000
    873 O           12.7596    22.4125    29.6700 O       2      m2     0.0000
    874 H           23.3774    12.7097    31.0672 H       2      m2     0.0000
    875 H           22.0390    13.7792    30.3287 H       2      m2     0.0000
    876 H           21.6535    11.1487    31.9816 H       2      m2     0.0000
    877 H           19.7223    13.1266    30.4542 H       2      m2     0.0000
    878 H           19.3305    11.3998    30.9041 H       2      m2     0.0000
    879 H           18.4447    13.6662    34.6276 H       2      m2     0.0000
    880 H           16.1722    14.3585    35.0376 H       2      m2     0.0000
    881 H           15.1771    13.3919    31.0468 H       2      m2     0.0000
    882 H           17.4178    12.7077    30.6369 H       2      m2     0.0000
    883 H           13.3872    13.7607    32.6930 H       2      m2     0.0000
    884 H           13.7989    14.1395    34.3710 H       2      m2     0.0000
    885 H           14.4110    16.4424    34.9949 H       2      m2     0.0000
    886 H           14.2073    18.7921    34.4965 H       2      m2     0.0000
    887 H           13.2999    17.8462    30.4740 H       2      m2     0.0000
    888 H           13.5016    15.5288    30.9711 H       2      m2     0.0000
    889 H           14.1003    20.0356    30.2474 H       2      m2     0.0000
    890 H           12.3253    19.9629    30.6743 H       2      m2     0.0000
    891 H           14.2515    22.3961    31.2603 H       2      m2     0.0000
    892 H           12.0796    23.6315    31.2994 H       2      m2     0.0000
    893 H           11.1499    22.0353    31.0378 H       2      m2     0.0000
    894 O          -20.1594   -27.5647    -4.5909 O       2      m2     0.0000
    895 C          -20.6222   -29.0333    -4.6118 C       2      m2     0.0000
    896 C          -20.6116   -28.3887    -3.3714 C       2      m2     0.0000
    897 C          -19.4227   -28.5808    -2.4357 C       2      m2     0.0000
    898 O          -19.7746   -29.4962    -1.4186 O       2      m2     0.0000
    899 C          -18.8516   -29.8101    -0.4500 C       2      m2     0.0000
    900 C          -19.1808   -30.7248     0.4828 C       2      m2     0.0000
    901 C          -18.3417   -31.0947     1.4617 C       2      m2     0.0000
    902 C          -17.1145   -30.5569     1.5526 C       2      m2     0.0000
    903 C          -16.7647   -29.6481     0.6275 C       2      m2     0.0000
    904 C          -17.6134   -29.2862    -0.3477 C       2      m2     0.0000
    905 C          -16.1568   -30.9727     2.6462 C       2      m2     0.0000
    906 C          -15.3443   -32.1602     2.1817 C       2      m2     0.0000
    907 C          -15.7591   -33.4178     2.4044 C       2      m2     0.0000
    908 C          -15.0337   -34.4634     1.9807 C       2      m2     0.0000
    909 C          -13.8697   -34.3200     1.3176 C       2      m2     0.0000
    910 C          -13.4704   -33.0506     1.0996 C       2      m2     0.0000
    911 C          -14.1877   -31.9961     1.5189 C       2      m2     0.0000
    912 O          -13.1945   -35.4494     0.9210 O       2      m2     0.0000
    913 C          -11.9715   -35.3138     0.2266 C       2      m2     0.0000
    914 C          -11.4435   -36.6981    -0.1351 C       2      m2     0.0000
    915 C          -10.4069   -37.2575     0.6177 C       2      m2     0.0000
    916 O          -10.0170   -36.5571    -0.6970 O       2      m2     0.0000
    917 H          -21.5465   -29.0899    -5.1856 H       2      m2     0.0000
    918 H          -19.7845   -29.6494    -4.9342 H       2      m2     0.0000
    919 H          -21.5335   -27.9769    -2.9483 H       2      m2     0.0000
    920 H          -18.5373   -28.9749    -2.9854 H       2      m2     0.0000
    921 H          -19.1813   -27.5932    -1.9784 H       2      m2     0.0000
    922 H          -20.1807   -31.1902     0.4399 H       2      m2     0.0000
    923 H          -18.6664   -31.8510     2.1954 H       2      m2     0.0000
    924 H          -15.7616   -29.1914     0.6656 H       2      m2     0.0000
    925 H          -17.2517   -28.5360    -1.0685 H       2      m2     0.0000
    926 H          -15.4872   -30.1266     2.9239 H       2      m2     0.0000
    927 H          -16.7139   -31.2196     3.5789 H       2      m2     0.0000
    928 H          -16.7065   -33.5982     2.9389 H       2      m2     0.0000
    929 H          -15.4070   -35.4823     2.1826 H       2      m2     0.0000
    930 H          -12.5335   -32.8330     0.5630 H       2      m2     0.0000
    931 H          -13.8193   -30.9772     1.3119 H       2      m2     0.0000
    932 H          -12.1438   -34.7525    -0.7211 H       2      m2     0.0000
    933 H          -11.2492   -34.7632     0.8718 H       2      m2     0.0000
    934 H          -12.0565   -37.3232    -0.7923 H       2      m2     0.0000
    935 H          -10.1761   -38.3176     0.5191 H       2      m2     0.0000
    936 H           -9.9509   -36.7120     1.4421 H       2      m2     0.0000
    937 C          -15.2220    -0.2558     1.3896 C       1      m1     0.0000
    938 C          -15.0733    -0.9864     0.2598 C       1      m1     0.0000
    939 C          -15.7756    -0.6872    -0.8548 C       1      m1     0.0000
    940 C          -16.6208     0.3597    -0.7900 C       1      m1     0.0000
    941 C          -16.8020     1.1126     0.3057 C       1      m1     0.0000
    942 C          -16.0843     0.7832     1.3958 C       1      m1     0.0000
    943 C          -17.7718     2.2856     0.3219 C       1      m1     0.0000
    944 C          -18.5501     2.5919    -0.9658 C       1      m1     0.0000
    945 C          -15.7474    -1.3852    -2.2144 C       1      m1     0.0000
    946 C          -14.8660    -2.5981    -2.5303 C       1      m1     0.0000
    947 C          -14.4560    -0.5489     2.6735 C       1      m1     0.0000
    948 N          -16.2325     1.4760     2.4501 N       1      m1     0.0000
    949 N          -14.2588    -1.9584     0.2730 N       1      m1     0.0000
    950 H          -17.1929     0.6035    -1.6980 H       1      m1     0.0000
    951 H          -18.5231     2.1018     1.1283 H       1      m1     0.0000
    952 H          -17.1970     3.2058     0.5892 H       1      m1     0.0000
    953 H          -19.2212     3.4699    -0.8188 H       1      m1     0.0000
    954 H          -17.8687     2.8473    -1.8094 H       1      m1     0.0000
    955 H          -19.2001     1.7390    -1.2682 H       1      m1     0.0000
    956 H          -16.7985    -1.6998    -2.4341 H       1      m1     0.0000
    957 H          -15.4817    -0.6035    -2.9695 H       1      m1     0.0000
    958 H          -15.0215    -2.9263    -3.5847 H       1      m1     0.0000
    959 H          -13.7815    -2.3590    -2.4434 H       1      m1     0.0000
    960 H          -15.1249    -3.4774    -1.8972 H       1      m1     0.0000
    961 H          -13.7527    -1.4036     2.6544 H       1      m1     0.0000
    962 H          -13.8356     0.3310     2.9603 H       1      m1     0.0000
    963 H          -15.1662    -0.7762     3.5014 H       1      m1     0.0000
    964 H          -15.7024     1.2689     3.3297 H       1      m1     0.0000
    965 H          -16.8941     2.2878     2.4848 H       1      m1     0.0000
    966 H          -14.0828    -2.5714    -0.5490 H       1      m1     0.0000
    967 H          -13.6948    -2.2269     1.1103 H       1      m1     0.0000
    968 O           18.7630   -12.1185    21.9454 O       2      m2     0.0000
    969 C           18.5613   -13.6126    22.2590 C       2      m2     0.0000
    970 C           19.3941   -13.2970    21.1815 C       2      m2     0.0000
    971 C           18.8316   -13.3259    19.7643 C       2      m2     0.0000
    972 O           19.2514   -14.5120    19.1215 O       2      m2     0.0000
    973 C           18.8686   -14.7421    17.8218 C       2      m2     0.0000
    974 C           19.2301   -15.9014    17.2382 C       2      m2     0.0000
    975 C           18.8973   -16.2113    15.9764 C       2      m2     0.0000
    976 C           18.1753   -15.3607    15.2290 C       2      m2     0.0000
    977 C           17.7990   -14.2023    15.7953 C       2      m2     0.0000
    978 C           18.1380   -13.9036    17.0594 C       2      m2     0.0000
    979 C           17.7865   -15.7030    13.8085 C       2      m2     0.0000
    980 C           16.4702   -16.4469    13.8103 C       2      m2     0.0000
    981 C           16.4277   -17.7869    13.8849 C       2      m2     0.0000
    982 C           15.2538   -18.4356    13.8937 C       2      m2     0.0000
    983 C           14.0694   -17.7964    13.8316 C       2      m2     0.0000
    984 C           14.1308   -16.4513    13.7607 C       2      m2     0.0000
    985 C           15.2997   -15.7909    13.7512 C       2      m2     0.0000
    986 O           12.9162   -18.5440    13.8469 O       2      m2     0.0000
    987 C           11.6672   -17.8870    13.7802 C       2      m2     0.0000
    988 C           10.5505   -18.9231    13.8528 C       2      m2     0.0000
    989 C            9.8809   -19.2963    12.6837 C       2      m2     0.0000
    990 O            9.2064   -18.2293    13.5656 O       2      m2     0.0000
    991 H           18.9943   -13.8156    23.2378 H       2      m2     0.0000
    992 H           17.5103   -13.8530    22.1077 H       2      m2     0.0000
    993 H           20.4825   -13.2941    21.2993 H       2      m2     0.0000
    994 H           17.7179   -13.2946    19.7724 H       2      m2     0.0000
    995 H           19.2357   -12.4438    19.2153 H       2      m2     0.0000
    996 H           19.8231   -16.6268    17.8218 H       2      m2     0.0000
    997 H           19.2197   -17.1772    15.5536 H       2      m2     0.0000
    998 H           17.1978   -13.4828    15.2145 H       2      m2     0.0000
    999 H           17.7903   -12.9349    17.4518 H       2      m2     0.0000
   1000 H           17.7121   -14.7800    13.1889 H       2      m2     0.0000
   1001 H           18.5817   -16.3143    13.3235 H       2      m2     0.0000
   1002 H           17.3651   -18.3648    13.9422 H       2      m2     0.0000
   1003 H           15.2591   -19.5376    13.9559 H       2      m2     0.0000
   1004 H           13.2149   -15.8417    13.7096 H       2      m2     0.0000
   1005 H           15.2957   -14.6893    13.6960 H       2      m2     0.0000
   1006 H           11.5607   -17.2039    14.6548 H       2      m2     0.0000
   1007 H           11.6157   -17.3051    12.8314 H       2      m2     0.0000
   1008 H           10.4817   -19.5377    14.7560 H       2      m2     0.0000
   1009 H            9.2487   -20.1834    12.6806 H       2      m2     0.0000
   1010 H           10.1241   -18.8413    11.7251 H       2      m2     0.0000
   1011 O            6.7456     3.0363    -1.8239 O       2      m2     0.0000
   1012 C            6.8678     1.5842    -1.3262 C       2      m2     0.0000
   1013 C            6.0410     1.8092    -2.4307 C       2      m2     0.0000
   1014 C            4.5364     1.9510    -2.2256 C       2      m2     0.0000
   1015 O            3.9005     0.7460    -2.5998 O       2      m2     0.0000
   1016 C            2.5324     0.6530    -2.5080 C       2      m2     0.0000
   1017 C            1.9432    -0.5188    -2.8163 C       2      m2     0.0000
   1018 C            0.6159    -0.7007    -2.7512 C       2      m2     0.0000
   1019 C           -0.1953     0.2986    -2.3681 C       2      m2     0.0000
   1020 C            0.3737     1.4728    -2.0496 C       2      m2     0.0000
   1021 C            1.7036     1.6426    -2.1185 C       2      m2     0.0000
   1022 C           -1.6921     0.1025    -2.2823 C       2      m2     0.0000
   1023 C           -2.0570    -0.4051    -0.9056 C       2      m2     0.0000
   1024 C           -2.1163    -1.7203    -0.6414 C       2      m2     0.0000
   1025 C           -2.4335    -2.1588     0.5858 C       2      m2     0.0000
   1026 C           -2.7045    -1.3247     1.6085 C       2      m2     0.0000
   1027 C           -2.6368    -0.0079     1.3263 C       2      m2     0.0000
   1028 C           -2.3205     0.4431     0.1019 C       2      m2     0.0000
   1029 O           -3.0196    -1.8644     2.8325 O       2      m2     0.0000
   1030 C           -3.3082    -1.0015     3.9133 C       2      m2     0.0000
   1031 C           -3.5858    -1.8343     5.1604 C       2      m2     0.0000
   1032 C           -4.9053    -2.0260     5.5802 C       2      m2     0.0000
   1033 O           -4.1063    -0.9074     6.2740 O       2      m2     0.0000
   1034 H            7.8967     1.2592    -1.4763 H       2      m2     0.0000
   1035 H            6.4605     1.5347    -0.3178 H       2      m2     0.0000
   1036 H            6.4026     1.6202    -3.4466 H       2      m2     0.0000
   1037 H            4.2942     2.1712    -1.1606 H       2      m2     0.0000
   1038 H            4.1762     2.7788    -2.8796 H       2      m2     0.0000
   1039 H            2.5776    -1.3642    -3.1341 H       2      m2     0.0000
   1040 H            0.1913    -1.6839    -3.0132 H       2      m2     0.0000
   1041 H           -0.2605     2.3137    -1.7225 H       2      m2     0.0000
   1042 H            2.0933     2.6345    -1.8399 H       2      m2     0.0000
   1043 H           -2.2257     1.0558    -2.5006 H       2      m2     0.0000
   1044 H           -2.0374    -0.6092    -3.0668 H       2      m2     0.0000
   1045 H           -1.9005    -2.4517    -1.4378 H       2      m2     0.0000
   1046 H           -2.4723    -3.2473     0.7646 H       2      m2     0.0000
   1047 H           -2.8389     0.7508     2.0987 H       2      m2     0.0000
   1048 H           -2.2746     1.5306    -0.0765 H       2      m2     0.0000
   1049 H           -2.4222    -0.3571     4.1197 H       2      m2     0.0000
   1050 H           -4.1868    -0.3704     3.6467 H       2      m2     0.0000
   1051 H           -2.7815    -2.4747     5.5366 H       2      m2     0.0000
   1052 H           -5.1327    -2.7909     6.3218 H       2      m2     0.0000
   1053 H           -5.7382    -1.5696     5.0482 H       2      m2     0.0000
   1054 C          -32.4831     0.2166   -14.4764 C       1      m1     0.0000
   1055 C          -32.7310    -0.8795   -15.2310 C       1      m1     0.0000
   1056 C          -32.2793    -0.9611   -16.5016 C       1      m1     0.0000
   1057 C          -31.5791     0.0870   -16.9768 C       1      m1     0.0000
   1058 C          -31.3085     1.1935   -16.2679 C       1      m1     0.0000
   1059 C          -31.7753     1.2371   -15.0062 C       1      m1     0.0000
   1060 C          -30.5114     2.3488   -16.8567 C       1      m1     0.0000
   1061 C          -30.0164     2.2158   -18.3042 C       1      m1     0.0000
   1062 C          -32.4539    -2.1026   -17.5031 C       1      m1     0.0000
   1063 C          -33.2115    -3.3980   -17.1936 C       1      m1     0.0000
   1064 C          -32.9683     0.3611   -13.0395 C       1      m1     0.0000
   1065 N          -31.5366     2.2710   -14.3078 N       1      m1     0.0000
   1066 N          -33.3973    -1.8279   -14.7163 N       1      m1     0.0000
   1067 H          -31.2111     0.0206   -18.0119 H       1      m1     0.0000
   1068 H          -31.1453     3.2676   -16.8057 H       1      m1     0.0000
   1069 H          -29.6133     2.5131   -16.2125 H       1      m1     0.0000
   1070 H          -29.4498     3.1259   -18.6099 H       1      m1     0.0000
   1071 H          -29.3241     1.3515   -18.4261 H       1      m1     0.0000
   1072 H          -30.8621     2.1090   -19.0217 H       1      m1     0.0000
   1073 H          -32.9468    -1.6629   -18.4062 H       1      m1     0.0000
   1074 H          -31.4256    -2.4122   -17.8173 H       1      m1     0.0000
   1075 H          -33.2015    -4.0743   -18.0802 H       1      m1     0.0000
   1076 H          -32.7339    -3.9728   -16.3676 H       1      m1     0.0000
   1077 H          -34.2859    -3.2085   -16.9684 H       1      m1     0.0000
   1078 H          -33.5475    -0.4829   -12.6179 H       1      m1     0.0000
   1079 H          -32.1009     0.4897   -12.3520 H       1      m1     0.0000
   1080 H          -33.6376     1.2470   -12.9470 H       1      m1     0.0000
   1081 H          -31.8731     2.3637   -13.3201 H       1      m1     0.0000
   1082 H          -30.9902     3.0783   -14.6918 H       1      m1     0.0000
   1083 H          -33.6332    -2.7053   -15.2233 H       1      m1     0.0000
   1084 H          -33.7665    -1.8095   -13.7393 H       1      m1     0.0000
   1085 O           30.7189   -35.4992     9.3545 O       2      m2     0.0000
   1086 C           31.5730   -34.2277     9.1963 C       2      m2     0.0000
   1087 C           32.0597   -35.2164    10.0564 C       2      m2     0.0000
   1088 C           31.8162   -35.0924    11.5568 C       2      m2     0.0000
   1089 O           32.9986   -34.6402    12.1841 O       2      m2     0.0000
   1090 C           33.0112   -34.4683    13.5475 C       2      m2     0.0000
   1091 C           34.1276   -33.9853    14.1268 C       2      m2     0.0000
   1092 C           34.2271   -33.7820    15.4489 C       2      m2     0.0000
   1093 C           33.1966   -34.0575    16.2646 C       2      m2     0.0000
   1094 C           32.0719   -34.5333    15.7053 C       2      m2     0.0000
   1095 C           31.9843   -34.7323    14.3805 C       2      m2     0.0000
   1096 C           33.2941   -33.8240    17.7553 C       2      m2     0.0000
   1097 C           32.8621   -32.4106    18.0745 C       2      m2     0.0000
   1098 C           33.7481   -31.4020    18.1063 C       2      m2     0.0000
   1099 C           33.3519   -30.1508    18.3830 C       2      m2     0.0000
   1100 C           32.0675   -29.8346    18.6388 C       2      m2     0.0000
   1101 C           31.1912   -30.8587    18.5991 C       2      m2     0.0000
   1102 C           31.5758   -32.1152    18.3234 C       2      m2     0.0000
   1103 O           31.7538   -28.5247    18.9119 O       2      m2     0.0000
   1104 C           30.4112   -28.1792    19.1840 C       2      m2     0.0000
   1105 C           30.3169   -26.6745    19.4145 C       2      m2     0.0000
   1106 C           30.2093   -26.1836    20.7189 C       2      m2     0.0000
   1107 O           28.9025   -26.3344    19.9186 O       2      m2     0.0000
   1108 H           31.9269   -34.1822     8.1670 H       2      m2     0.0000
   1109 H           30.9996   -33.3833     9.5750 H       2      m2     0.0000
   1110 H           32.8271   -35.9208     9.7199 H       2      m2     0.0000
   1111 H           30.9946   -34.3716    11.7732 H       2      m2     0.0000
   1112 H           31.5523   -36.1026    11.9475 H       2      m2     0.0000
   1113 H           34.9954   -33.7455    13.4884 H       2      m2     0.0000
   1114 H           35.1662   -33.3815    15.8653 H       2      m2     0.0000
   1115 H           31.2020   -34.7629    16.3432 H       2      m2     0.0000
   1116 H           31.0281   -35.1237    13.9987 H       2      m2     0.0000
   1117 H           32.6656   -34.5584    18.3093 H       2      m2     0.0000
   1118 H           34.3341   -34.0059    18.1109 H       2      m2     0.0000
   1119 H           34.8134   -31.5989    17.9011 H       2      m2     0.0000
   1120 H           34.1093   -29.3481    18.4001 H       2      m2     0.0000
   1121 H           30.1188   -30.6979    18.7916 H       2      m2     0.0000
   1122 H           30.8189   -32.9172    18.2992 H       2      m2     0.0000
   1123 H           29.7773   -28.4330    18.3027 H       2      m2     0.0000
   1124 H           30.0670   -28.7461    20.0793 H       2      m2     0.0000
   1125 H           30.6018   -26.0126    18.5905 H       2      m2     0.0000
   1126 H           30.3675   -25.1236    20.9141 H       2      m2     0.0000
   1127 H           30.1650   -26.8572    21.5730 H       2      m2     0.0000
   1128 O           28.0419    26.9010   -27.9526 O       2      m2     0.0000
   1129 C           29.5504    26.8536   -27.6469 C       2      m2     0.0000
   1130 C           28.9014    28.0765   -27.4526 C       2      m2     0.0000
   1131 C           28.9649    29.1415   -28.5422 C       2      m2     0.0000
   1132 O           29.9061    30.1286   -28.1734 O       2      m2     0.0000
   1133 C           30.1180    31.1990   -29.0090 C       2      m2     0.0000
   1134 C           31.0566    32.1048   -28.6720 C       2      m2     0.0000
   1135 C           31.3328    33.1770   -29.4292 C       2      m2     0.0000
   1136 C           30.6710    33.3945   -30.5773 C       2      m2     0.0000
   1137 C           29.7360    32.4987   -30.9344 C       2      m2     0.0000
   1138 C           29.4688    31.4293   -30.1681 C       2      m2     0.0000
   1139 C           30.9799    34.5946   -31.4435 C       2      m2     0.0000
   1140 C           32.0799    34.2435   -32.4196 C       2      m2     0.0000
   1141 C           33.3723    34.4400   -32.1126 C       2      m2     0.0000
   1142 C           34.3399    34.1173   -32.9835 C       2      m2     0.0000
   1143 C           34.0810    33.5852   -34.1939 C       2      m2     0.0000
   1144 C           32.7785    33.3914   -34.4839 C       2      m2     0.0000
   1145 C           31.8011    33.7105   -33.6205 C       2      m2     0.0000
   1146 O           35.1370    33.2852   -35.0207 O       2      m2     0.0000
   1147 C           34.8800    32.7288   -36.2937 C       2      m2     0.0000
   1148 C           36.2044    32.4515   -36.9971 C       2      m2     0.0000
   1149 C           36.6500    33.3242   -37.9941 C       2      m2     0.0000
   1150 O           35.9203    32.0492   -38.4558 O       2      m2     0.0000
   1151 H           29.7051    26.1818   -26.8034 H       2      m2     0.0000
   1152 H           30.0787    26.6368   -28.5737 H       2      m2     0.0000
   1153 H           28.5845    28.3875   -26.4519 H       2      m2     0.0000
   1154 H           29.2687    28.7004   -29.5193 H       2      m2     0.0000
   1155 H           27.9552    29.6060   -28.6290 H       2      m2     0.0000
   1156 H           31.6228    31.9590   -27.7358 H       2      m2     0.0000
   1157 H           32.1144    33.8828   -29.1029 H       2      m2     0.0000
   1158 H           29.1782    32.6402   -31.8752 H       2      m2     0.0000
   1159 H           28.6893    30.7404   -30.5302 H       2      m2     0.0000
   1160 H           30.0678    34.9306   -31.9881 H       2      m2     0.0000
   1161 H           31.2778    35.4637   -30.8132 H       2      m2     0.0000
   1162 H           33.6464    34.8689   -31.1345 H       2      m2     0.0000
   1163 H           35.3908    34.2937   -32.6955 H       2      m2     0.0000
   1164 H           32.4684    32.9586   -35.4481 H       2      m2     0.0000
   1165 H           30.7509    33.5284   -33.9042 H       2      m2     0.0000
   1166 H           34.3446    31.7584   -36.1726 H       2      m2     0.0000
   1167 H           34.2543    33.4409   -36.8792 H       2      m2     0.0000
   1168 H           36.8929    31.7411   -36.5285 H       2      m2     0.0000
   1169 H           37.6812    33.2698   -38.3412 H       2      m2     0.0000
   1170 H           36.0559    34.1848   -38.2969 H       2      m2     0.0000
@<TRIPOS>BOND
