@<TRIPOS>MOLECULE
****
31 31 1 0 0
SMALL
USER_CHARGES


@<TRIPOS>ATOM
      1 C          -1.4114    0.7442   -0.0002 C.ar      1     ****    0.0000
      2 C          -0.7924   -0.4596   -0.0002 C.ar      1     ****    0.0000
      3 C           0.5559   -0.5441   -0.0002 C.ar      1     ****    0.0000
      4 C           1.2473    0.6120   -0.0003 C.ar      1     ****    0.0000
      5 C           0.6791    1.8275   -0.0003 C.ar      1     ****    0.0000
      6 C          -0.6663    1.8702   -0.0002 C.ar      1     ****    0.0000
      7 C           1.5109    3.1022   -0.0003 C.3       1     ****    0.0000
      8 C           3.0400    2.9619   -0.0002 C.3       1     ****    0.0000
      9 C           1.4318   -1.7968   -0.0002 C.3       1     ****    0.0000
     10 C           0.8753   -3.2243    0.0000 C.3       1     ****    0.0000
     11 C          -2.9272    0.8972   -0.0002 C.3       1     ****    0.0000
     12 N          -1.2359    3.0056   -0.0003 N.3       1     ****    0.0000
     13 N          -1.5088   -1.5061   -0.0001 N.3       1     ****    0.0000
     14 H           2.3457    0.5433   -0.0003 H         1     ****    0.0000
     15 H           1.2321    3.6969   -0.9043 H         1     ****    0.0000
     16 H           1.2320    3.6971    0.9035 H         1     ****    0.0000
     17 H           3.5257    3.9654   -0.0002 H         1     ****    0.0000
     18 H           3.4058    2.4291    0.9073 H         1     ****    0.0000
     19 H           3.4059    2.4290   -0.9076 H         1     ****    0.0000
     20 H           2.0957   -1.7226   -0.8978 H         1     ****    0.0000
     21 H           2.0958   -1.7225    0.8973 H         1     ****    0.0000
     22 H           1.7087   -3.9654    0.0000 H         1     ****    0.0000
     23 H           0.2783   -3.4387    0.9157 H         1     ****    0.0000
     24 H           0.2783   -3.4389   -0.9157 H         1     ****    0.0000
     25 H          -3.5257   -0.0341   -0.0004 H         1     ****    0.0000
     26 H          -3.2573    1.4540    0.9067 H         1     ****    0.0000
     27 H          -3.2573    1.4543   -0.9069 H         1     ****    0.0000
     28 H          -2.2789    3.1036   -0.0002 H         1     ****    0.0000
     29 H          -0.6840    3.8963   -0.0003 H         1     ****    0.0000
     30 H          -1.1173   -2.4701   -0.0001 H         1     ****    0.0000
     31 H          -2.5533   -1.4900   -0.0001 H         1     ****    0.0000
@<TRIPOS>BOND
     1     1     2     1
     2     1     6     2
     3     1    11     1
     4     2     3     2
     5     2    13     1
     6     3     4     1
     7     3     9     1
     8     4     5     2
     9     4    14     1
    10     5     6     1
    11     5     7     1
    12     6    12     1
    13     7     8     1
    14     7    15     1
    15     7    16     1
    16     8    17     1
    17     8    18     1
    18     8    19     1
    19     9    10     1
    20     9    20     1
    21     9    21     1
    22    10    22     1
    23    10    23     1
    24    10    24     1
    25    11    25     1
    26    11    26     1
    27    11    27     1
    28    12    28     1
    29    12    29     1
    30    13    30     1
    31    13    31     1
