@<TRIPOS>MOLECULE
generated by VMD
   60   79    1    0    0
SMALL
NO_CHARGES
****
Energy = 0

@<TRIPOS>ATOM
      1  C          0.0000    0.0000    0.0000   CA    1  GRA        0.000000
      2  C         -1.2280    0.7090    0.0000   CA    2  GRA        0.000000
      3  C         -1.2280    2.1270    0.0000   CA    3  GRA        0.000000
      4  C          0.0000    2.8360    0.0000   CA    4  GRA        0.000000
      5  C          2.4560    0.0000    0.0000   CA    5  GRA        0.000000
      6  C          1.2280    0.7090    0.0000   CA    6  GRA        0.000000
      7  C          1.2280    2.1270    0.0000   CA    7  GRA        0.000000
      8  C          2.4560    2.8360    0.0000   CA    8  GRA        0.000000
      9  C          4.9121    0.0000    0.0000   CA    9  GRA        0.000000
     10  C          3.6841    0.7090    0.0000   CA   10  GRA        0.000000
     11  C          3.6841    2.1270    0.0000   CA   11  GRA        0.000000
     12  C          4.9121    2.8360    0.0000   CA   12  GRA        0.000000
     13  C          7.3681    0.0000    0.0000   CA   13  GRA        0.000000
     14  C          6.1401    0.7090    0.0000   CA   14  GRA        0.000000
     15  C          6.1401    2.1270    0.0000   CA   15  GRA        0.000000
     16  C          7.3681    2.8360    0.0000   CA   16  GRA        0.000000
     17  C          9.8242    0.0000    0.0000   CA   17  GRA        0.000000
     18  C          8.5962    0.7090    0.0000   CA   18  GRA        0.000000
     19  C          8.5962    2.1270    0.0000   CA   19  GRA        0.000000
     20  C          9.8242    2.8360    0.0000   CA   20  GRA        0.000000
     21  C          0.0000    4.2540    0.0000   CA   21  GRA        0.000000
     22  C         -1.2280    4.9630    0.0000   CA   22  GRA        0.000000
     23  C         -1.2280    6.3810    0.0000   CA   23  GRA        0.000000
     24  C          0.0000    7.0900    0.0000   CA   24  GRA        0.000000
     25  C          2.4560    4.2540    0.0000   CA   25  GRA        0.000000
     26  C          1.2280    4.9630    0.0000   CA   26  GRA        0.000000
     27  C          1.2280    6.3810    0.0000   CA   27  GRA        0.000000
     28  C          2.4560    7.0900    0.0000   CA   28  GRA        0.000000
     29  C          4.9121    4.2540    0.0000   CA   29  GRA        0.000000
     30  C          3.6841    4.9630    0.0000   CA   30  GRA        0.000000
     31  C          3.6841    6.3810    0.0000   CA   31  GRA        0.000000
     32  C          4.9121    7.0900    0.0000   CA   32  GRA        0.000000
     33  C          7.3681    4.2540    0.0000   CA   33  GRA        0.000000
     34  C          6.1401    4.9630    0.0000   CA   34  GRA        0.000000
     35  C          6.1401    6.3810    0.0000   CA   35  GRA        0.000000
     36  C          7.3681    7.0900    0.0000   CA   36  GRA        0.000000
     37  C          9.8242    4.2540    0.0000   CA   37  GRA        0.000000
     38  C          8.5962    4.9630    0.0000   CA   38  GRA        0.000000
     39  C          8.5962    6.3810    0.0000   CA   39  GRA        0.000000
     40  C          9.8242    7.0900    0.0000   CA   40  GRA        0.000000
     41  C          0.0000    8.5080    0.0000   CA   41  GRA        0.000000
     42  C         -1.2280    9.2170    0.0000   CA   42  GRA        0.000000
     43  C         -1.2280   10.6350    0.0000   CA   43  GRA        0.000000
     44  C          0.0000   11.3440    0.0000   CA   44  GRA        0.000000
     45  C          2.4560    8.5080    0.0000   CA   45  GRA        0.000000
     46  C          1.2280    9.2170    0.0000   CA   46  GRA        0.000000
     47  C          1.2280   10.6350    0.0000   CA   47  GRA        0.000000
     48  C          2.4560   11.3440    0.0000   CA   48  GRA        0.000000
     49  C          4.9121    8.5080    0.0000   CA   49  GRA        0.000000
     50  C          3.6841    9.2170    0.0000   CA   50  GRA        0.000000
     51  C          3.6841   10.6350    0.0000   CA   51  GRA        0.000000
     52  C          4.9121   11.3440    0.0000   CA   52  GRA        0.000000
     53  C          7.3681    8.5080    0.0000   CA   53  GRA        0.000000
     54  C          6.1401    9.2170    0.0000   CA   54  GRA        0.000000
     55  C          6.1401   10.6350    0.0000   CA   55  GRA        0.000000
     56  C          7.3681   11.3440    0.0000   CA   56  GRA        0.000000
     57  C          9.8242    8.5080    0.0000   CA   57  GRA        0.000000
     58  C          8.5962    9.2170    0.0000   CA   58  GRA        0.000000
     59  C          8.5962   10.6350    0.0000   CA   59  GRA        0.000000
     60  C          9.8242   11.3440    0.0000   CA   60  GRA        0.000000
@<TRIPOS>BOND
    1     1     2  1
    2     1     6  1
    3     2     3  1
    4     3     4  1
    5     4     7  1
    6     4    21  1
    7     5     6  1
    8     5    10  1
    9     6     7  1
   10     7     8  1
   11     8    11  1
   12     8    25  1
   13     9    14  1
   14     9    10  1
   15    10    11  1
   16    11    12  1
   17    12    15  1
   18    12    29  1
   19    13    18  1
   20    13    14  1
   21    14    15  1
   22    15    16  1
   23    16    19  1
   24    16    33  1
   25    17    18  1
   26    18    19  1
   27    19    20  1
   28    20    37  1
   29    21    22  1
   30    21    26  1
   31    22    23  1
   32    23    24  1
   33    24    27  1
   34    24    41  1
   35    25    26  1
   36    25    30  1
   37    26    27  1
   38    27    28  1
   39    28    31  1
   40    28    45  1
   41    29    34  1
   42    29    30  1
   43    30    31  1
   44    31    32  1
   45    32    35  1
   46    32    49  1
   47    33    34  1
   48    33    38  1
   49    34    35  1
   50    35    36  1
   51    36    39  1
   52    36    53  1
   53    37    38  1
   54    38    39  1
   55    39    40  1
   56    40    57  1
   57    41    42  1
   58    41    46  1
   59    42    43  1
   60    43    44  1
   61    44    47  1
   62    45    46  1
   63    45    50  1
   64    46    47  1
   65    47    48  1
   66    48    51  1
   67    49    54  1
   68    49    50  1
   69    50    51  1
   70    51    52  1
   71    52    55  1
   72    53    58  1
   73    53    54  1
   74    54    55  1
   75    55    56  1
   76    56    59  1
   77    57    58  1
   78    58    59  1
   79    59    60  1

@<TRIPOS>SUBSTRUCTURE
1 ****        1 TEMP                        0 ****  **** 0 ROOT
