@<TRIPOS>MOLECULE
generated by VMD
 2016 2934    1    0    0
SMALL
NO_CHARGES
****
Energy = 0

@<TRIPOS>ATOM
      1  C          0.0000    0.0000    0.0000   CA    1  GRA        0.000000
      2  C         -1.2280    0.7090    0.0000   CA    2  GRA        0.000000
      3  C         -1.2280    2.1270    0.0000   CA    3  GRA        0.000000
      4  C          0.0000    2.8360    0.0000   CA    4  GRA        0.000000
      5  C          2.4560    0.0000    0.0000   CA    5  GRA        0.000000
      6  C          1.2280    0.7090    0.0000   CA    6  GRA        0.000000
      7  C          1.2280    2.1270    0.0000   CA    7  GRA        0.000000
      8  C          2.4560    2.8360    0.0000   CA    8  GRA        0.000000
      9  C          4.9121    0.0000    0.0000   CA    9  GRA        0.000000
     10  C          3.6841    0.7090    0.0000   CA   10  GRA        0.000000
     11  C          3.6841    2.1270    0.0000   CA   11  GRA        0.000000
     12  C          4.9121    2.8360    0.0000   CA   12  GRA        0.000000
     13  C          7.3681    0.0000    0.0000   CA   13  GRA        0.000000
     14  C          6.1401    0.7090    0.0000   CA   14  GRA        0.000000
     15  C          6.1401    2.1270    0.0000   CA   15  GRA        0.000000
     16  C          7.3681    2.8360    0.0000   CA   16  GRA        0.000000
     17  C          9.8242    0.0000    0.0000   CA   17  GRA        0.000000
     18  C          8.5962    0.7090    0.0000   CA   18  GRA        0.000000
     19  C          8.5962    2.1270    0.0000   CA   19  GRA        0.000000
     20  C          9.8242    2.8360    0.0000   CA   20  GRA        0.000000
     21  C         12.2802    0.0000    0.0000   CA   21  GRA        0.000000
     22  C         11.0522    0.7090    0.0000   CA   22  GRA        0.000000
     23  C         11.0522    2.1270    0.0000   CA   23  GRA        0.000000
     24  C         12.2802    2.8360    0.0000   CA   24  GRA        0.000000
     25  C         14.7363    0.0000    0.0000   CA   25  GRA        0.000000
     26  C         13.5083    0.7090    0.0000   CA   26  GRA        0.000000
     27  C         13.5083    2.1270    0.0000   CA   27  GRA        0.000000
     28  C         14.7363    2.8360    0.0000   CA   28  GRA        0.000000
     29  C         17.1923    0.0000    0.0000   CA   29  GRA        0.000000
     30  C         15.9643    0.7090    0.0000   CA   30  GRA        0.000000
     31  C         15.9643    2.1270    0.0000   CA   31  GRA        0.000000
     32  C         17.1923    2.8360    0.0000   CA   32  GRA        0.000000
     33  C         19.6484    0.0000    0.0000   CA   33  GRA        0.000000
     34  C         18.4204    0.7090    0.0000   CA   34  GRA        0.000000
     35  C         18.4204    2.1270    0.0000   CA   35  GRA        0.000000
     36  C         19.6484    2.8360    0.0000   CA   36  GRA        0.000000
     37  C         22.1044    0.0000    0.0000   CA   37  GRA        0.000000
     38  C         20.8764    0.7090    0.0000   CA   38  GRA        0.000000
     39  C         20.8764    2.1270    0.0000   CA   39  GRA        0.000000
     40  C         22.1044    2.8360    0.0000   CA   40  GRA        0.000000
     41  C         24.5605    0.0000    0.0000   CA   41  GRA        0.000000
     42  C         23.3325    0.7090    0.0000   CA   42  GRA        0.000000
     43  C         23.3325    2.1270    0.0000   CA   43  GRA        0.000000
     44  C         24.5605    2.8360    0.0000   CA   44  GRA        0.000000
     45  C         27.0165    0.0000    0.0000   CA   45  GRA        0.000000
     46  C         25.7885    0.7090    0.0000   CA   46  GRA        0.000000
     47  C         25.7885    2.1270    0.0000   CA   47  GRA        0.000000
     48  C         27.0165    2.8360    0.0000   CA   48  GRA        0.000000
     49  C         29.4726    0.0000    0.0000   CA   49  GRA        0.000000
     50  C         28.2446    0.7090    0.0000   CA   50  GRA        0.000000
     51  C         28.2446    2.1270    0.0000   CA   51  GRA        0.000000
     52  C         29.4726    2.8360    0.0000   CA   52  GRA        0.000000
     53  C         31.9286    0.0000    0.0000   CA   53  GRA        0.000000
     54  C         30.7006    0.7090    0.0000   CA   54  GRA        0.000000
     55  C         30.7006    2.1270    0.0000   CA   55  GRA        0.000000
     56  C         31.9286    2.8360    0.0000   CA   56  GRA        0.000000
     57  C         34.3847    0.0000    0.0000   CA   57  GRA        0.000000
     58  C         33.1566    0.7090    0.0000   CA   58  GRA        0.000000
     59  C         33.1566    2.1270    0.0000   CA   59  GRA        0.000000
     60  C         34.3847    2.8360    0.0000   CA   60  GRA        0.000000
     61  C         36.8407    0.0000    0.0000   CA   61  GRA        0.000000
     62  C         35.6127    0.7090    0.0000   CA   62  GRA        0.000000
     63  C         35.6127    2.1270    0.0000   CA   63  GRA        0.000000
     64  C         36.8407    2.8360    0.0000   CA   64  GRA        0.000000
     65  C         39.2968    0.0000    0.0000   CA   65  GRA        0.000000
     66  C         38.0687    0.7090    0.0000   CA   66  GRA        0.000000
     67  C         38.0687    2.1270    0.0000   CA   67  GRA        0.000000
     68  C         39.2968    2.8360    0.0000   CA   68  GRA        0.000000
     69  C         41.7528    0.0000    0.0000   CA   69  GRA        0.000000
     70  C         40.5248    0.7090    0.0000   CA   70  GRA        0.000000
     71  C         40.5248    2.1270    0.0000   CA   71  GRA        0.000000
     72  C         41.7528    2.8360    0.0000   CA   72  GRA        0.000000
     73  C         44.2089    0.0000    0.0000   CA   73  GRA        0.000000
     74  C         42.9808    0.7090    0.0000   CA   74  GRA        0.000000
     75  C         42.9808    2.1270    0.0000   CA   75  GRA        0.000000
     76  C         44.2089    2.8360    0.0000   CA   76  GRA        0.000000
     77  C         46.6649    0.0000    0.0000   CA   77  GRA        0.000000
     78  C         45.4369    0.7090    0.0000   CA   78  GRA        0.000000
     79  C         45.4369    2.1270    0.0000   CA   79  GRA        0.000000
     80  C         46.6649    2.8360    0.0000   CA   80  GRA        0.000000
     81  C         49.1210    0.0000    0.0000   CA   81  GRA        0.000000
     82  C         47.8929    0.7090    0.0000   CA   82  GRA        0.000000
     83  C         47.8929    2.1270    0.0000   CA   83  GRA        0.000000
     84  C         49.1210    2.8360    0.0000   CA   84  GRA        0.000000
     85  C          0.0000    4.2540    0.0000   CA   85  GRA        0.000000
     86  C         -1.2280    4.9630    0.0000   CA   86  GRA        0.000000
     87  C         -1.2280    6.3810    0.0000   CA   87  GRA        0.000000
     88  C          0.0000    7.0900    0.0000   CA   88  GRA        0.000000
     89  C          2.4560    4.2540    0.0000   CA   89  GRA        0.000000
     90  C          1.2280    4.9630    0.0000   CA   90  GRA        0.000000
     91  C          1.2280    6.3810    0.0000   CA   91  GRA        0.000000
     92  C          2.4560    7.0900    0.0000   CA   92  GRA        0.000000
     93  C          4.9121    4.2540    0.0000   CA   93  GRA        0.000000
     94  C          3.6841    4.9630    0.0000   CA   94  GRA        0.000000
     95  C          3.6841    6.3810    0.0000   CA   95  GRA        0.000000
     96  C          4.9121    7.0900    0.0000   CA   96  GRA        0.000000
     97  C          7.3681    4.2540    0.0000   CA   97  GRA        0.000000
     98  C          6.1401    4.9630    0.0000   CA   98  GRA        0.000000
     99  C          6.1401    6.3810    0.0000   CA   99  GRA        0.000000
    100  C          7.3681    7.0900    0.0000   CA  100  GRA        0.000000
    101  C          9.8242    4.2540    0.0000   CA  101  GRA        0.000000
    102  C          8.5962    4.9630    0.0000   CA  102  GRA        0.000000
    103  C          8.5962    6.3810    0.0000   CA  103  GRA        0.000000
    104  C          9.8242    7.0900    0.0000   CA  104  GRA        0.000000
    105  C         12.2802    4.2540    0.0000   CA  105  GRA        0.000000
    106  C         11.0522    4.9630    0.0000   CA  106  GRA        0.000000
    107  C         11.0522    6.3810    0.0000   CA  107  GRA        0.000000
    108  C         12.2802    7.0900    0.0000   CA  108  GRA        0.000000
    109  C         14.7363    4.2540    0.0000   CA  109  GRA        0.000000
    110  C         13.5083    4.9630    0.0000   CA  110  GRA        0.000000
    111  C         13.5083    6.3810    0.0000   CA  111  GRA        0.000000
    112  C         14.7363    7.0900    0.0000   CA  112  GRA        0.000000
    113  C         17.1923    4.2540    0.0000   CA  113  GRA        0.000000
    114  C         15.9643    4.9630    0.0000   CA  114  GRA        0.000000
    115  C         15.9643    6.3810    0.0000   CA  115  GRA        0.000000
    116  C         17.1923    7.0900    0.0000   CA  116  GRA        0.000000
    117  C         19.6484    4.2540    0.0000   CA  117  GRA        0.000000
    118  C         18.4204    4.9630    0.0000   CA  118  GRA        0.000000
    119  C         18.4204    6.3810    0.0000   CA  119  GRA        0.000000
    120  C         19.6484    7.0900    0.0000   CA  120  GRA        0.000000
    121  C         22.1044    4.2540    0.0000   CA  121  GRA        0.000000
    122  C         20.8764    4.9630    0.0000   CA  122  GRA        0.000000
    123  C         20.8764    6.3810    0.0000   CA  123  GRA        0.000000
    124  C         22.1044    7.0900    0.0000   CA  124  GRA        0.000000
    125  C         24.5605    4.2540    0.0000   CA  125  GRA        0.000000
    126  C         23.3325    4.9630    0.0000   CA  126  GRA        0.000000
    127  C         23.3325    6.3810    0.0000   CA  127  GRA        0.000000
    128  C         24.5605    7.0900    0.0000   CA  128  GRA        0.000000
    129  C         27.0165    4.2540    0.0000   CA  129  GRA        0.000000
    130  C         25.7885    4.9630    0.0000   CA  130  GRA        0.000000
    131  C         25.7885    6.3810    0.0000   CA  131  GRA        0.000000
    132  C         27.0165    7.0900    0.0000   CA  132  GRA        0.000000
    133  C         29.4726    4.2540    0.0000   CA  133  GRA        0.000000
    134  C         28.2446    4.9630    0.0000   CA  134  GRA        0.000000
    135  C         28.2446    6.3810    0.0000   CA  135  GRA        0.000000
    136  C         29.4726    7.0900    0.0000   CA  136  GRA        0.000000
    137  C         31.9286    4.2540    0.0000   CA  137  GRA        0.000000
    138  C         30.7006    4.9630    0.0000   CA  138  GRA        0.000000
    139  C         30.7006    6.3810    0.0000   CA  139  GRA        0.000000
    140  C         31.9286    7.0900    0.0000   CA  140  GRA        0.000000
    141  C         34.3847    4.2540    0.0000   CA  141  GRA        0.000000
    142  C         33.1566    4.9630    0.0000   CA  142  GRA        0.000000
    143  C         33.1566    6.3810    0.0000   CA  143  GRA        0.000000
    144  C         34.3847    7.0900    0.0000   CA  144  GRA        0.000000
    145  C         36.8407    4.2540    0.0000   CA  145  GRA        0.000000
    146  C         35.6127    4.9630    0.0000   CA  146  GRA        0.000000
    147  C         35.6127    6.3810    0.0000   CA  147  GRA        0.000000
    148  C         36.8407    7.0900    0.0000   CA  148  GRA        0.000000
    149  C         39.2968    4.2540    0.0000   CA  149  GRA        0.000000
    150  C         38.0687    4.9630    0.0000   CA  150  GRA        0.000000
    151  C         38.0687    6.3810    0.0000   CA  151  GRA        0.000000
    152  C         39.2968    7.0900    0.0000   CA  152  GRA        0.000000
    153  C         41.7528    4.2540    0.0000   CA  153  GRA        0.000000
    154  C         40.5248    4.9630    0.0000   CA  154  GRA        0.000000
    155  C         40.5248    6.3810    0.0000   CA  155  GRA        0.000000
    156  C         41.7528    7.0900    0.0000   CA  156  GRA        0.000000
    157  C         44.2089    4.2540    0.0000   CA  157  GRA        0.000000
    158  C         42.9808    4.9630    0.0000   CA  158  GRA        0.000000
    159  C         42.9808    6.3810    0.0000   CA  159  GRA        0.000000
    160  C         44.2089    7.0900    0.0000   CA  160  GRA        0.000000
    161  C         46.6649    4.2540    0.0000   CA  161  GRA        0.000000
    162  C         45.4369    4.9630    0.0000   CA  162  GRA        0.000000
    163  C         45.4369    6.3810    0.0000   CA  163  GRA        0.000000
    164  C         46.6649    7.0900    0.0000   CA  164  GRA        0.000000
    165  C         49.1210    4.2540    0.0000   CA  165  GRA        0.000000
    166  C         47.8929    4.9630    0.0000   CA  166  GRA        0.000000
    167  C         47.8929    6.3810    0.0000   CA  167  GRA        0.000000
    168  C         49.1210    7.0900    0.0000   CA  168  GRA        0.000000
    169  C          0.0000    8.5080    0.0000   CA  169  GRA        0.000000
    170  C         -1.2280    9.2170    0.0000   CA  170  GRA        0.000000
    171  C         -1.2280   10.6350    0.0000   CA  171  GRA        0.000000
    172  C          0.0000   11.3440    0.0000   CA  172  GRA        0.000000
    173  C          2.4560    8.5080    0.0000   CA  173  GRA        0.000000
    174  C          1.2280    9.2170    0.0000   CA  174  GRA        0.000000
    175  C          1.2280   10.6350    0.0000   CA  175  GRA        0.000000
    176  C          2.4560   11.3440    0.0000   CA  176  GRA        0.000000
    177  C          4.9121    8.5080    0.0000   CA  177  GRA        0.000000
    178  C          3.6841    9.2170    0.0000   CA  178  GRA        0.000000
    179  C          3.6841   10.6350    0.0000   CA  179  GRA        0.000000
    180  C          4.9121   11.3440    0.0000   CA  180  GRA        0.000000
    181  C          7.3681    8.5080    0.0000   CA  181  GRA        0.000000
    182  C          6.1401    9.2170    0.0000   CA  182  GRA        0.000000
    183  C          6.1401   10.6350    0.0000   CA  183  GRA        0.000000
    184  C          7.3681   11.3440    0.0000   CA  184  GRA        0.000000
    185  C          9.8242    8.5080    0.0000   CA  185  GRA        0.000000
    186  C          8.5962    9.2170    0.0000   CA  186  GRA        0.000000
    187  C          8.5962   10.6350    0.0000   CA  187  GRA        0.000000
    188  C          9.8242   11.3440    0.0000   CA  188  GRA        0.000000
    189  C         12.2802    8.5080    0.0000   CA  189  GRA        0.000000
    190  C         11.0522    9.2170    0.0000   CA  190  GRA        0.000000
    191  C         11.0522   10.6350    0.0000   CA  191  GRA        0.000000
    192  C         12.2802   11.3440    0.0000   CA  192  GRA        0.000000
    193  C         14.7363    8.5080    0.0000   CA  193  GRA        0.000000
    194  C         13.5083    9.2170    0.0000   CA  194  GRA        0.000000
    195  C         13.5083   10.6350    0.0000   CA  195  GRA        0.000000
    196  C         14.7363   11.3440    0.0000   CA  196  GRA        0.000000
    197  C         17.1923    8.5080    0.0000   CA  197  GRA        0.000000
    198  C         15.9643    9.2170    0.0000   CA  198  GRA        0.000000
    199  C         15.9643   10.6350    0.0000   CA  199  GRA        0.000000
    200  C         17.1923   11.3440    0.0000   CA  200  GRA        0.000000
    201  C         19.6484    8.5080    0.0000   CA  201  GRA        0.000000
    202  C         18.4204    9.2170    0.0000   CA  202  GRA        0.000000
    203  C         18.4204   10.6350    0.0000   CA  203  GRA        0.000000
    204  C         19.6484   11.3440    0.0000   CA  204  GRA        0.000000
    205  C         22.1044    8.5080    0.0000   CA  205  GRA        0.000000
    206  C         20.8764    9.2170    0.0000   CA  206  GRA        0.000000
    207  C         20.8764   10.6350    0.0000   CA  207  GRA        0.000000
    208  C         22.1044   11.3440    0.0000   CA  208  GRA        0.000000
    209  C         24.5605    8.5080    0.0000   CA  209  GRA        0.000000
    210  C         23.3325    9.2170    0.0000   CA  210  GRA        0.000000
    211  C         23.3325   10.6350    0.0000   CA  211  GRA        0.000000
    212  C         24.5605   11.3440    0.0000   CA  212  GRA        0.000000
    213  C         27.0165    8.5080    0.0000   CA  213  GRA        0.000000
    214  C         25.7885    9.2170    0.0000   CA  214  GRA        0.000000
    215  C         25.7885   10.6350    0.0000   CA  215  GRA        0.000000
    216  C         27.0165   11.3440    0.0000   CA  216  GRA        0.000000
    217  C         29.4726    8.5080    0.0000   CA  217  GRA        0.000000
    218  C         28.2446    9.2170    0.0000   CA  218  GRA        0.000000
    219  C         28.2446   10.6350    0.0000   CA  219  GRA        0.000000
    220  C         29.4726   11.3440    0.0000   CA  220  GRA        0.000000
    221  C         31.9286    8.5080    0.0000   CA  221  GRA        0.000000
    222  C         30.7006    9.2170    0.0000   CA  222  GRA        0.000000
    223  C         30.7006   10.6350    0.0000   CA  223  GRA        0.000000
    224  C         31.9286   11.3440    0.0000   CA  224  GRA        0.000000
    225  C         34.3847    8.5080    0.0000   CA  225  GRA        0.000000
    226  C         33.1566    9.2170    0.0000   CA  226  GRA        0.000000
    227  C         33.1566   10.6350    0.0000   CA  227  GRA        0.000000
    228  C         34.3847   11.3440    0.0000   CA  228  GRA        0.000000
    229  C         36.8407    8.5080    0.0000   CA  229  GRA        0.000000
    230  C         35.6127    9.2170    0.0000   CA  230  GRA        0.000000
    231  C         35.6127   10.6350    0.0000   CA  231  GRA        0.000000
    232  C         36.8407   11.3440    0.0000   CA  232  GRA        0.000000
    233  C         39.2968    8.5080    0.0000   CA  233  GRA        0.000000
    234  C         38.0687    9.2170    0.0000   CA  234  GRA        0.000000
    235  C         38.0687   10.6350    0.0000   CA  235  GRA        0.000000
    236  C         39.2968   11.3440    0.0000   CA  236  GRA        0.000000
    237  C         41.7528    8.5080    0.0000   CA  237  GRA        0.000000
    238  C         40.5248    9.2170    0.0000   CA  238  GRA        0.000000
    239  C         40.5248   10.6350    0.0000   CA  239  GRA        0.000000
    240  C         41.7528   11.3440    0.0000   CA  240  GRA        0.000000
    241  C         44.2089    8.5080    0.0000   CA  241  GRA        0.000000
    242  C         42.9808    9.2170    0.0000   CA  242  GRA        0.000000
    243  C         42.9808   10.6350    0.0000   CA  243  GRA        0.000000
    244  C         44.2089   11.3440    0.0000   CA  244  GRA        0.000000
    245  C         46.6649    8.5080    0.0000   CA  245  GRA        0.000000
    246  C         45.4369    9.2170    0.0000   CA  246  GRA        0.000000
    247  C         45.4369   10.6350    0.0000   CA  247  GRA        0.000000
    248  C         46.6649   11.3440    0.0000   CA  248  GRA        0.000000
    249  C         49.1210    8.5080    0.0000   CA  249  GRA        0.000000
    250  C         47.8929    9.2170    0.0000   CA  250  GRA        0.000000
    251  C         47.8929   10.6350    0.0000   CA  251  GRA        0.000000
    252  C         49.1210   11.3440    0.0000   CA  252  GRA        0.000000
    253  C          0.0000   12.7620    0.0000   CA  253  GRA        0.000000
    254  C         -1.2280   13.4710    0.0000   CA  254  GRA        0.000000
    255  C         -1.2280   14.8890    0.0000   CA  255  GRA        0.000000
    256  C          0.0000   15.5980    0.0000   CA  256  GRA        0.000000
    257  C          2.4560   12.7620    0.0000   CA  257  GRA        0.000000
    258  C          1.2280   13.4710    0.0000   CA  258  GRA        0.000000
    259  C          1.2280   14.8890    0.0000   CA  259  GRA        0.000000
    260  C          2.4560   15.5980    0.0000   CA  260  GRA        0.000000
    261  C          4.9121   12.7620    0.0000   CA  261  GRA        0.000000
    262  C          3.6841   13.4710    0.0000   CA  262  GRA        0.000000
    263  C          3.6841   14.8890    0.0000   CA  263  GRA        0.000000
    264  C          4.9121   15.5980    0.0000   CA  264  GRA        0.000000
    265  C          7.3681   12.7620    0.0000   CA  265  GRA        0.000000
    266  C          6.1401   13.4710    0.0000   CA  266  GRA        0.000000
    267  C          6.1401   14.8890    0.0000   CA  267  GRA        0.000000
    268  C          7.3681   15.5980    0.0000   CA  268  GRA        0.000000
    269  C          9.8242   12.7620    0.0000   CA  269  GRA        0.000000
    270  C          8.5962   13.4710    0.0000   CA  270  GRA        0.000000
    271  C          8.5962   14.8890    0.0000   CA  271  GRA        0.000000
    272  C          9.8242   15.5980    0.0000   CA  272  GRA        0.000000
    273  C         12.2802   12.7620    0.0000   CA  273  GRA        0.000000
    274  C         11.0522   13.4710    0.0000   CA  274  GRA        0.000000
    275  C         11.0522   14.8890    0.0000   CA  275  GRA        0.000000
    276  C         12.2802   15.5980    0.0000   CA  276  GRA        0.000000
    277  C         14.7363   12.7620    0.0000   CA  277  GRA        0.000000
    278  C         13.5083   13.4710    0.0000   CA  278  GRA        0.000000
    279  C         13.5083   14.8890    0.0000   CA  279  GRA        0.000000
    280  C         14.7363   15.5980    0.0000   CA  280  GRA        0.000000
    281  C         17.1923   12.7620    0.0000   CA  281  GRA        0.000000
    282  C         15.9643   13.4710    0.0000   CA  282  GRA        0.000000
    283  C         15.9643   14.8890    0.0000   CA  283  GRA        0.000000
    284  C         17.1923   15.5980    0.0000   CA  284  GRA        0.000000
    285  C         19.6484   12.7620    0.0000   CA  285  GRA        0.000000
    286  C         18.4204   13.4710    0.0000   CA  286  GRA        0.000000
    287  C         18.4204   14.8890    0.0000   CA  287  GRA        0.000000
    288  C         19.6484   15.5980    0.0000   CA  288  GRA        0.000000
    289  C         22.1044   12.7620    0.0000   CA  289  GRA        0.000000
    290  C         20.8764   13.4710    0.0000   CA  290  GRA        0.000000
    291  C         20.8764   14.8890    0.0000   CA  291  GRA        0.000000
    292  C         22.1044   15.5980    0.0000   CA  292  GRA        0.000000
    293  C         24.5605   12.7620    0.0000   CA  293  GRA        0.000000
    294  C         23.3325   13.4710    0.0000   CA  294  GRA        0.000000
    295  C         23.3325   14.8890    0.0000   CA  295  GRA        0.000000
    296  C         24.5605   15.5980    0.0000   CA  296  GRA        0.000000
    297  C         27.0165   12.7620    0.0000   CA  297  GRA        0.000000
    298  C         25.7885   13.4710    0.0000   CA  298  GRA        0.000000
    299  C         25.7885   14.8890    0.0000   CA  299  GRA        0.000000
    300  C         27.0165   15.5980    0.0000   CA  300  GRA        0.000000
    301  C         29.4726   12.7620    0.0000   CA  301  GRA        0.000000
    302  C         28.2446   13.4710    0.0000   CA  302  GRA        0.000000
    303  C         28.2446   14.8890    0.0000   CA  303  GRA        0.000000
    304  C         29.4726   15.5980    0.0000   CA  304  GRA        0.000000
    305  C         31.9286   12.7620    0.0000   CA  305  GRA        0.000000
    306  C         30.7006   13.4710    0.0000   CA  306  GRA        0.000000
    307  C         30.7006   14.8890    0.0000   CA  307  GRA        0.000000
    308  C         31.9286   15.5980    0.0000   CA  308  GRA        0.000000
    309  C         34.3847   12.7620    0.0000   CA  309  GRA        0.000000
    310  C         33.1566   13.4710    0.0000   CA  310  GRA        0.000000
    311  C         33.1566   14.8890    0.0000   CA  311  GRA        0.000000
    312  C         34.3847   15.5980    0.0000   CA  312  GRA        0.000000
    313  C         36.8407   12.7620    0.0000   CA  313  GRA        0.000000
    314  C         35.6127   13.4710    0.0000   CA  314  GRA        0.000000
    315  C         35.6127   14.8890    0.0000   CA  315  GRA        0.000000
    316  C         36.8407   15.5980    0.0000   CA  316  GRA        0.000000
    317  C         39.2968   12.7620    0.0000   CA  317  GRA        0.000000
    318  C         38.0687   13.4710    0.0000   CA  318  GRA        0.000000
    319  C         38.0687   14.8890    0.0000   CA  319  GRA        0.000000
    320  C         39.2968   15.5980    0.0000   CA  320  GRA        0.000000
    321  C         41.7528   12.7620    0.0000   CA  321  GRA        0.000000
    322  C         40.5248   13.4710    0.0000   CA  322  GRA        0.000000
    323  C         40.5248   14.8890    0.0000   CA  323  GRA        0.000000
    324  C         41.7528   15.5980    0.0000   CA  324  GRA        0.000000
    325  C         44.2089   12.7620    0.0000   CA  325  GRA        0.000000
    326  C         42.9808   13.4710    0.0000   CA  326  GRA        0.000000
    327  C         42.9808   14.8890    0.0000   CA  327  GRA        0.000000
    328  C         44.2089   15.5980    0.0000   CA  328  GRA        0.000000
    329  C         46.6649   12.7620    0.0000   CA  329  GRA        0.000000
    330  C         45.4369   13.4710    0.0000   CA  330  GRA        0.000000
    331  C         45.4369   14.8890    0.0000   CA  331  GRA        0.000000
    332  C         46.6649   15.5980    0.0000   CA  332  GRA        0.000000
    333  C         49.1210   12.7620    0.0000   CA  333  GRA        0.000000
    334  C         47.8929   13.4710    0.0000   CA  334  GRA        0.000000
    335  C         47.8929   14.8890    0.0000   CA  335  GRA        0.000000
    336  C         49.1210   15.5980    0.0000   CA  336  GRA        0.000000
    337  C          0.0000   17.0160    0.0000   CA  337  GRA        0.000000
    338  C         -1.2280   17.7250    0.0000   CA  338  GRA        0.000000
    339  C         -1.2280   19.1430    0.0000   CA  339  GRA        0.000000
    340  C          0.0000   19.8520    0.0000   CA  340  GRA        0.000000
    341  C          2.4560   17.0160    0.0000   CA  341  GRA        0.000000
    342  C          1.2280   17.7250    0.0000   CA  342  GRA        0.000000
    343  C          1.2280   19.1430    0.0000   CA  343  GRA        0.000000
    344  C          2.4560   19.8520    0.0000   CA  344  GRA        0.000000
    345  C          4.9121   17.0160    0.0000   CA  345  GRA        0.000000
    346  C          3.6841   17.7250    0.0000   CA  346  GRA        0.000000
    347  C          3.6841   19.1430    0.0000   CA  347  GRA        0.000000
    348  C          4.9121   19.8520    0.0000   CA  348  GRA        0.000000
    349  C          7.3681   17.0160    0.0000   CA  349  GRA        0.000000
    350  C          6.1401   17.7250    0.0000   CA  350  GRA        0.000000
    351  C          6.1401   19.1430    0.0000   CA  351  GRA        0.000000
    352  C          7.3681   19.8520    0.0000   CA  352  GRA        0.000000
    353  C          9.8242   17.0160    0.0000   CA  353  GRA        0.000000
    354  C          8.5962   17.7250    0.0000   CA  354  GRA        0.000000
    355  C          8.5962   19.1430    0.0000   CA  355  GRA        0.000000
    356  C          9.8242   19.8520    0.0000   CA  356  GRA        0.000000
    357  C         12.2802   17.0160    0.0000   CA  357  GRA        0.000000
    358  C         11.0522   17.7250    0.0000   CA  358  GRA        0.000000
    359  C         11.0522   19.1430    0.0000   CA  359  GRA        0.000000
    360  C         12.2802   19.8520    0.0000   CA  360  GRA        0.000000
    361  C         14.7363   17.0160    0.0000   CA  361  GRA        0.000000
    362  C         13.5083   17.7250    0.0000   CA  362  GRA        0.000000
    363  C         13.5083   19.1430    0.0000   CA  363  GRA        0.000000
    364  C         14.7363   19.8520    0.0000   CA  364  GRA        0.000000
    365  C         17.1923   17.0160    0.0000   CA  365  GRA        0.000000
    366  C         15.9643   17.7250    0.0000   CA  366  GRA        0.000000
    367  C         15.9643   19.1430    0.0000   CA  367  GRA        0.000000
    368  C         17.1923   19.8520    0.0000   CA  368  GRA        0.000000
    369  C         19.6484   17.0160    0.0000   CA  369  GRA        0.000000
    370  C         18.4204   17.7250    0.0000   CA  370  GRA        0.000000
    371  C         18.4204   19.1430    0.0000   CA  371  GRA        0.000000
    372  C         19.6484   19.8520    0.0000   CA  372  GRA        0.000000
    373  C         22.1044   17.0160    0.0000   CA  373  GRA        0.000000
    374  C         20.8764   17.7250    0.0000   CA  374  GRA        0.000000
    375  C         20.8764   19.1430    0.0000   CA  375  GRA        0.000000
    376  C         22.1044   19.8520    0.0000   CA  376  GRA        0.000000
    377  C         24.5605   17.0160    0.0000   CA  377  GRA        0.000000
    378  C         23.3325   17.7250    0.0000   CA  378  GRA        0.000000
    379  C         23.3325   19.1430    0.0000   CA  379  GRA        0.000000
    380  C         24.5605   19.8520    0.0000   CA  380  GRA        0.000000
    381  C         27.0165   17.0160    0.0000   CA  381  GRA        0.000000
    382  C         25.7885   17.7250    0.0000   CA  382  GRA        0.000000
    383  C         25.7885   19.1430    0.0000   CA  383  GRA        0.000000
    384  C         27.0165   19.8520    0.0000   CA  384  GRA        0.000000
    385  C         29.4726   17.0160    0.0000   CA  385  GRA        0.000000
    386  C         28.2446   17.7250    0.0000   CA  386  GRA        0.000000
    387  C         28.2446   19.1430    0.0000   CA  387  GRA        0.000000
    388  C         29.4726   19.8520    0.0000   CA  388  GRA        0.000000
    389  C         31.9286   17.0160    0.0000   CA  389  GRA        0.000000
    390  C         30.7006   17.7250    0.0000   CA  390  GRA        0.000000
    391  C         30.7006   19.1430    0.0000   CA  391  GRA        0.000000
    392  C         31.9286   19.8520    0.0000   CA  392  GRA        0.000000
    393  C         34.3847   17.0160    0.0000   CA  393  GRA        0.000000
    394  C         33.1566   17.7250    0.0000   CA  394  GRA        0.000000
    395  C         33.1566   19.1430    0.0000   CA  395  GRA        0.000000
    396  C         34.3847   19.8520    0.0000   CA  396  GRA        0.000000
    397  C         36.8407   17.0160    0.0000   CA  397  GRA        0.000000
    398  C         35.6127   17.7250    0.0000   CA  398  GRA        0.000000
    399  C         35.6127   19.1430    0.0000   CA  399  GRA        0.000000
    400  C         36.8407   19.8520    0.0000   CA  400  GRA        0.000000
    401  C         39.2968   17.0160    0.0000   CA  401  GRA        0.000000
    402  C         38.0687   17.7250    0.0000   CA  402  GRA        0.000000
    403  C         38.0687   19.1430    0.0000   CA  403  GRA        0.000000
    404  C         39.2968   19.8520    0.0000   CA  404  GRA        0.000000
    405  C         41.7528   17.0160    0.0000   CA  405  GRA        0.000000
    406  C         40.5248   17.7250    0.0000   CA  406  GRA        0.000000
    407  C         40.5248   19.1430    0.0000   CA  407  GRA        0.000000
    408  C         41.7528   19.8520    0.0000   CA  408  GRA        0.000000
    409  C         44.2089   17.0160    0.0000   CA  409  GRA        0.000000
    410  C         42.9808   17.7250    0.0000   CA  410  GRA        0.000000
    411  C         42.9808   19.1430    0.0000   CA  411  GRA        0.000000
    412  C         44.2089   19.8520    0.0000   CA  412  GRA        0.000000
    413  C         46.6649   17.0160    0.0000   CA  413  GRA        0.000000
    414  C         45.4369   17.7250    0.0000   CA  414  GRA        0.000000
    415  C         45.4369   19.1430    0.0000   CA  415  GRA        0.000000
    416  C         46.6649   19.8520    0.0000   CA  416  GRA        0.000000
    417  C         49.1210   17.0160    0.0000   CA  417  GRA        0.000000
    418  C         47.8929   17.7250    0.0000   CA  418  GRA        0.000000
    419  C         47.8929   19.1430    0.0000   CA  419  GRA        0.000000
    420  C         49.1210   19.8520    0.0000   CA  420  GRA        0.000000
    421  C          0.0000   21.2700    0.0000   CA  421  GRA        0.000000
    422  C         -1.2280   21.9790    0.0000   CA  422  GRA        0.000000
    423  C         -1.2280   23.3970    0.0000   CA  423  GRA        0.000000
    424  C          0.0000   24.1060    0.0000   CA  424  GRA        0.000000
    425  C          2.4560   21.2700    0.0000   CA  425  GRA        0.000000
    426  C          1.2280   21.9790    0.0000   CA  426  GRA        0.000000
    427  C          1.2280   23.3970    0.0000   CA  427  GRA        0.000000
    428  C          2.4560   24.1060    0.0000   CA  428  GRA        0.000000
    429  C          4.9121   21.2700    0.0000   CA  429  GRA        0.000000
    430  C          3.6841   21.9790    0.0000   CA  430  GRA        0.000000
    431  C          3.6841   23.3970    0.0000   CA  431  GRA        0.000000
    432  C          4.9121   24.1060    0.0000   CA  432  GRA        0.000000
    433  C          7.3681   21.2700    0.0000   CA  433  GRA        0.000000
    434  C          6.1401   21.9790    0.0000   CA  434  GRA        0.000000
    435  C          6.1401   23.3970    0.0000   CA  435  GRA        0.000000
    436  C          7.3681   24.1060    0.0000   CA  436  GRA        0.000000
    437  C          9.8242   21.2700    0.0000   CA  437  GRA        0.000000
    438  C          8.5962   21.9790    0.0000   CA  438  GRA        0.000000
    439  C          8.5962   23.3970    0.0000   CA  439  GRA        0.000000
    440  C          9.8242   24.1060    0.0000   CA  440  GRA        0.000000
    441  C         12.2802   21.2700    0.0000   CA  441  GRA        0.000000
    442  C         11.0522   21.9790    0.0000   CA  442  GRA        0.000000
    443  C         11.0522   23.3970    0.0000   CA  443  GRA        0.000000
    444  C         12.2802   24.1060    0.0000   CA  444  GRA        0.000000
    445  C         14.7363   21.2700    0.0000   CA  445  GRA        0.000000
    446  C         13.5083   21.9790    0.0000   CA  446  GRA        0.000000
    447  C         13.5083   23.3970    0.0000   CA  447  GRA        0.000000
    448  C         14.7363   24.1060    0.0000   CA  448  GRA        0.000000
    449  C         17.1923   21.2700    0.0000   CA  449  GRA        0.000000
    450  C         15.9643   21.9790    0.0000   CA  450  GRA        0.000000
    451  C         15.9643   23.3970    0.0000   CA  451  GRA        0.000000
    452  C         17.1923   24.1060    0.0000   CA  452  GRA        0.000000
    453  C         19.6484   21.2700    0.0000   CA  453  GRA        0.000000
    454  C         18.4204   21.9790    0.0000   CA  454  GRA        0.000000
    455  C         18.4204   23.3970    0.0000   CA  455  GRA        0.000000
    456  C         19.6484   24.1060    0.0000   CA  456  GRA        0.000000
    457  C         22.1044   21.2700    0.0000   CA  457  GRA        0.000000
    458  C         20.8764   21.9790    0.0000   CA  458  GRA        0.000000
    459  C         20.8764   23.3970    0.0000   CA  459  GRA        0.000000
    460  C         22.1044   24.1060    0.0000   CA  460  GRA        0.000000
    461  C         24.5605   21.2700    0.0000   CA  461  GRA        0.000000
    462  C         23.3325   21.9790    0.0000   CA  462  GRA        0.000000
    463  C         23.3325   23.3970    0.0000   CA  463  GRA        0.000000
    464  C         24.5605   24.1060    0.0000   CA  464  GRA        0.000000
    465  C         27.0165   21.2700    0.0000   CA  465  GRA        0.000000
    466  C         25.7885   21.9790    0.0000   CA  466  GRA        0.000000
    467  C         25.7885   23.3970    0.0000   CA  467  GRA        0.000000
    468  C         27.0165   24.1060    0.0000   CA  468  GRA        0.000000
    469  C         29.4726   21.2700    0.0000   CA  469  GRA        0.000000
    470  C         28.2446   21.9790    0.0000   CA  470  GRA        0.000000
    471  C         28.2446   23.3970    0.0000   CA  471  GRA        0.000000
    472  C         29.4726   24.1060    0.0000   CA  472  GRA        0.000000
    473  C         31.9286   21.2700    0.0000   CA  473  GRA        0.000000
    474  C         30.7006   21.9790    0.0000   CA  474  GRA        0.000000
    475  C         30.7006   23.3970    0.0000   CA  475  GRA        0.000000
    476  C         31.9286   24.1060    0.0000   CA  476  GRA        0.000000
    477  C         34.3847   21.2700    0.0000   CA  477  GRA        0.000000
    478  C         33.1566   21.9790    0.0000   CA  478  GRA        0.000000
    479  C         33.1566   23.3970    0.0000   CA  479  GRA        0.000000
    480  C         34.3847   24.1060    0.0000   CA  480  GRA        0.000000
    481  C         36.8407   21.2700    0.0000   CA  481  GRA        0.000000
    482  C         35.6127   21.9790    0.0000   CA  482  GRA        0.000000
    483  C         35.6127   23.3970    0.0000   CA  483  GRA        0.000000
    484  C         36.8407   24.1060    0.0000   CA  484  GRA        0.000000
    485  C         39.2968   21.2700    0.0000   CA  485  GRA        0.000000
    486  C         38.0687   21.9790    0.0000   CA  486  GRA        0.000000
    487  C         38.0687   23.3970    0.0000   CA  487  GRA        0.000000
    488  C         39.2968   24.1060    0.0000   CA  488  GRA        0.000000
    489  C         41.7528   21.2700    0.0000   CA  489  GRA        0.000000
    490  C         40.5248   21.9790    0.0000   CA  490  GRA        0.000000
    491  C         40.5248   23.3970    0.0000   CA  491  GRA        0.000000
    492  C         41.7528   24.1060    0.0000   CA  492  GRA        0.000000
    493  C         44.2089   21.2700    0.0000   CA  493  GRA        0.000000
    494  C         42.9808   21.9790    0.0000   CA  494  GRA        0.000000
    495  C         42.9808   23.3970    0.0000   CA  495  GRA        0.000000
    496  C         44.2089   24.1060    0.0000   CA  496  GRA        0.000000
    497  C         46.6649   21.2700    0.0000   CA  497  GRA        0.000000
    498  C         45.4369   21.9790    0.0000   CA  498  GRA        0.000000
    499  C         45.4369   23.3970    0.0000   CA  499  GRA        0.000000
    500  C         46.6649   24.1060    0.0000   CA  500  GRA        0.000000
    501  C         49.1210   21.2700    0.0000   CA  501  GRA        0.000000
    502  C         47.8929   21.9790    0.0000   CA  502  GRA        0.000000
    503  C         47.8929   23.3970    0.0000   CA  503  GRA        0.000000
    504  C         49.1210   24.1060    0.0000   CA  504  GRA        0.000000
    505  C          0.0000   25.5240    0.0000   CA  505  GRA        0.000000
    506  C         -1.2280   26.2330    0.0000   CA  506  GRA        0.000000
    507  C         -1.2280   27.6510    0.0000   CA  507  GRA        0.000000
    508  C          0.0000   28.3600    0.0000   CA  508  GRA        0.000000
    509  C          2.4560   25.5240    0.0000   CA  509  GRA        0.000000
    510  C          1.2280   26.2330    0.0000   CA  510  GRA        0.000000
    511  C          1.2280   27.6510    0.0000   CA  511  GRA        0.000000
    512  C          2.4560   28.3600    0.0000   CA  512  GRA        0.000000
    513  C          4.9121   25.5240    0.0000   CA  513  GRA        0.000000
    514  C          3.6841   26.2330    0.0000   CA  514  GRA        0.000000
    515  C          3.6841   27.6510    0.0000   CA  515  GRA        0.000000
    516  C          4.9121   28.3600    0.0000   CA  516  GRA        0.000000
    517  C          7.3681   25.5240    0.0000   CA  517  GRA        0.000000
    518  C          6.1401   26.2330    0.0000   CA  518  GRA        0.000000
    519  C          6.1401   27.6510    0.0000   CA  519  GRA        0.000000
    520  C          7.3681   28.3600    0.0000   CA  520  GRA        0.000000
    521  C          9.8242   25.5240    0.0000   CA  521  GRA        0.000000
    522  C          8.5962   26.2330    0.0000   CA  522  GRA        0.000000
    523  C          8.5962   27.6510    0.0000   CA  523  GRA        0.000000
    524  C          9.8242   28.3600    0.0000   CA  524  GRA        0.000000
    525  C         12.2802   25.5240    0.0000   CA  525  GRA        0.000000
    526  C         11.0522   26.2330    0.0000   CA  526  GRA        0.000000
    527  C         11.0522   27.6510    0.0000   CA  527  GRA        0.000000
    528  C         12.2802   28.3600    0.0000   CA  528  GRA        0.000000
    529  C         14.7363   25.5240    0.0000   CA  529  GRA        0.000000
    530  C         13.5083   26.2330    0.0000   CA  530  GRA        0.000000
    531  C         13.5083   27.6510    0.0000   CA  531  GRA        0.000000
    532  C         14.7363   28.3600    0.0000   CA  532  GRA        0.000000
    533  C         17.1923   25.5240    0.0000   CA  533  GRA        0.000000
    534  C         15.9643   26.2330    0.0000   CA  534  GRA        0.000000
    535  C         15.9643   27.6510    0.0000   CA  535  GRA        0.000000
    536  C         17.1923   28.3600    0.0000   CA  536  GRA        0.000000
    537  C         19.6484   25.5240    0.0000   CA  537  GRA        0.000000
    538  C         18.4204   26.2330    0.0000   CA  538  GRA        0.000000
    539  C         18.4204   27.6510    0.0000   CA  539  GRA        0.000000
    540  C         19.6484   28.3600    0.0000   CA  540  GRA        0.000000
    541  C         22.1044   25.5240    0.0000   CA  541  GRA        0.000000
    542  C         20.8764   26.2330    0.0000   CA  542  GRA        0.000000
    543  C         20.8764   27.6510    0.0000   CA  543  GRA        0.000000
    544  C         22.1044   28.3600    0.0000   CA  544  GRA        0.000000
    545  C         24.5605   25.5240    0.0000   CA  545  GRA        0.000000
    546  C         23.3325   26.2330    0.0000   CA  546  GRA        0.000000
    547  C         23.3325   27.6510    0.0000   CA  547  GRA        0.000000
    548  C         24.5605   28.3600    0.0000   CA  548  GRA        0.000000
    549  C         27.0165   25.5240    0.0000   CA  549  GRA        0.000000
    550  C         25.7885   26.2330    0.0000   CA  550  GRA        0.000000
    551  C         25.7885   27.6510    0.0000   CA  551  GRA        0.000000
    552  C         27.0165   28.3600    0.0000   CA  552  GRA        0.000000
    553  C         29.4726   25.5240    0.0000   CA  553  GRA        0.000000
    554  C         28.2446   26.2330    0.0000   CA  554  GRA        0.000000
    555  C         28.2446   27.6510    0.0000   CA  555  GRA        0.000000
    556  C         29.4726   28.3600    0.0000   CA  556  GRA        0.000000
    557  C         31.9286   25.5240    0.0000   CA  557  GRA        0.000000
    558  C         30.7006   26.2330    0.0000   CA  558  GRA        0.000000
    559  C         30.7006   27.6510    0.0000   CA  559  GRA        0.000000
    560  C         31.9286   28.3600    0.0000   CA  560  GRA        0.000000
    561  C         34.3847   25.5240    0.0000   CA  561  GRA        0.000000
    562  C         33.1566   26.2330    0.0000   CA  562  GRA        0.000000
    563  C         33.1566   27.6510    0.0000   CA  563  GRA        0.000000
    564  C         34.3847   28.3600    0.0000   CA  564  GRA        0.000000
    565  C         36.8407   25.5240    0.0000   CA  565  GRA        0.000000
    566  C         35.6127   26.2330    0.0000   CA  566  GRA        0.000000
    567  C         35.6127   27.6510    0.0000   CA  567  GRA        0.000000
    568  C         36.8407   28.3600    0.0000   CA  568  GRA        0.000000
    569  C         39.2968   25.5240    0.0000   CA  569  GRA        0.000000
    570  C         38.0687   26.2330    0.0000   CA  570  GRA        0.000000
    571  C         38.0687   27.6510    0.0000   CA  571  GRA        0.000000
    572  C         39.2968   28.3600    0.0000   CA  572  GRA        0.000000
    573  C         41.7528   25.5240    0.0000   CA  573  GRA        0.000000
    574  C         40.5248   26.2330    0.0000   CA  574  GRA        0.000000
    575  C         40.5248   27.6510    0.0000   CA  575  GRA        0.000000
    576  C         41.7528   28.3600    0.0000   CA  576  GRA        0.000000
    577  C         44.2089   25.5240    0.0000   CA  577  GRA        0.000000
    578  C         42.9808   26.2330    0.0000   CA  578  GRA        0.000000
    579  C         42.9808   27.6510    0.0000   CA  579  GRA        0.000000
    580  C         44.2089   28.3600    0.0000   CA  580  GRA        0.000000
    581  C         46.6649   25.5240    0.0000   CA  581  GRA        0.000000
    582  C         45.4369   26.2330    0.0000   CA  582  GRA        0.000000
    583  C         45.4369   27.6510    0.0000   CA  583  GRA        0.000000
    584  C         46.6649   28.3600    0.0000   CA  584  GRA        0.000000
    585  C         49.1210   25.5240    0.0000   CA  585  GRA        0.000000
    586  C         47.8929   26.2330    0.0000   CA  586  GRA        0.000000
    587  C         47.8929   27.6510    0.0000   CA  587  GRA        0.000000
    588  C         49.1210   28.3600    0.0000   CA  588  GRA        0.000000
    589  C          0.0000   29.7780    0.0000   CA  589  GRA        0.000000
    590  C         -1.2280   30.4870    0.0000   CA  590  GRA        0.000000
    591  C         -1.2280   31.9050    0.0000   CA  591  GRA        0.000000
    592  C          0.0000   32.6140    0.0000   CA  592  GRA        0.000000
    593  C          2.4560   29.7780    0.0000   CA  593  GRA        0.000000
    594  C          1.2280   30.4870    0.0000   CA  594  GRA        0.000000
    595  C          1.2280   31.9050    0.0000   CA  595  GRA        0.000000
    596  C          2.4560   32.6140    0.0000   CA  596  GRA        0.000000
    597  C          4.9121   29.7780    0.0000   CA  597  GRA        0.000000
    598  C          3.6841   30.4870    0.0000   CA  598  GRA        0.000000
    599  C          3.6841   31.9050    0.0000   CA  599  GRA        0.000000
    600  C          4.9121   32.6140    0.0000   CA  600  GRA        0.000000
    601  C          7.3681   29.7780    0.0000   CA  601  GRA        0.000000
    602  C          6.1401   30.4870    0.0000   CA  602  GRA        0.000000
    603  C          6.1401   31.9050    0.0000   CA  603  GRA        0.000000
    604  C          7.3681   32.6140    0.0000   CA  604  GRA        0.000000
    605  C          9.8242   29.7780    0.0000   CA  605  GRA        0.000000
    606  C          8.5962   30.4870    0.0000   CA  606  GRA        0.000000
    607  C          8.5962   31.9050    0.0000   CA  607  GRA        0.000000
    608  C          9.8242   32.6140    0.0000   CA  608  GRA        0.000000
    609  C         12.2802   29.7780    0.0000   CA  609  GRA        0.000000
    610  C         11.0522   30.4870    0.0000   CA  610  GRA        0.000000
    611  C         11.0522   31.9050    0.0000   CA  611  GRA        0.000000
    612  C         12.2802   32.6140    0.0000   CA  612  GRA        0.000000
    613  C         14.7363   29.7780    0.0000   CA  613  GRA        0.000000
    614  C         13.5083   30.4870    0.0000   CA  614  GRA        0.000000
    615  C         13.5083   31.9050    0.0000   CA  615  GRA        0.000000
    616  C         14.7363   32.6140    0.0000   CA  616  GRA        0.000000
    617  C         17.1923   29.7780    0.0000   CA  617  GRA        0.000000
    618  C         15.9643   30.4870    0.0000   CA  618  GRA        0.000000
    619  C         15.9643   31.9050    0.0000   CA  619  GRA        0.000000
    620  C         17.1923   32.6140    0.0000   CA  620  GRA        0.000000
    621  C         19.6484   29.7780    0.0000   CA  621  GRA        0.000000
    622  C         18.4204   30.4870    0.0000   CA  622  GRA        0.000000
    623  C         18.4204   31.9050    0.0000   CA  623  GRA        0.000000
    624  C         19.6484   32.6140    0.0000   CA  624  GRA        0.000000
    625  C         22.1044   29.7780    0.0000   CA  625  GRA        0.000000
    626  C         20.8764   30.4870    0.0000   CA  626  GRA        0.000000
    627  C         20.8764   31.9050    0.0000   CA  627  GRA        0.000000
    628  C         22.1044   32.6140    0.0000   CA  628  GRA        0.000000
    629  C         24.5605   29.7780    0.0000   CA  629  GRA        0.000000
    630  C         23.3325   30.4870    0.0000   CA  630  GRA        0.000000
    631  C         23.3325   31.9050    0.0000   CA  631  GRA        0.000000
    632  C         24.5605   32.6140    0.0000   CA  632  GRA        0.000000
    633  C         27.0165   29.7780    0.0000   CA  633  GRA        0.000000
    634  C         25.7885   30.4870    0.0000   CA  634  GRA        0.000000
    635  C         25.7885   31.9050    0.0000   CA  635  GRA        0.000000
    636  C         27.0165   32.6140    0.0000   CA  636  GRA        0.000000
    637  C         29.4726   29.7780    0.0000   CA  637  GRA        0.000000
    638  C         28.2446   30.4870    0.0000   CA  638  GRA        0.000000
    639  C         28.2446   31.9050    0.0000   CA  639  GRA        0.000000
    640  C         29.4726   32.6140    0.0000   CA  640  GRA        0.000000
    641  C         31.9286   29.7780    0.0000   CA  641  GRA        0.000000
    642  C         30.7006   30.4870    0.0000   CA  642  GRA        0.000000
    643  C         30.7006   31.9050    0.0000   CA  643  GRA        0.000000
    644  C         31.9286   32.6140    0.0000   CA  644  GRA        0.000000
    645  C         34.3847   29.7780    0.0000   CA  645  GRA        0.000000
    646  C         33.1566   30.4870    0.0000   CA  646  GRA        0.000000
    647  C         33.1566   31.9050    0.0000   CA  647  GRA        0.000000
    648  C         34.3847   32.6140    0.0000   CA  648  GRA        0.000000
    649  C         36.8407   29.7780    0.0000   CA  649  GRA        0.000000
    650  C         35.6127   30.4870    0.0000   CA  650  GRA        0.000000
    651  C         35.6127   31.9050    0.0000   CA  651  GRA        0.000000
    652  C         36.8407   32.6140    0.0000   CA  652  GRA        0.000000
    653  C         39.2968   29.7780    0.0000   CA  653  GRA        0.000000
    654  C         38.0687   30.4870    0.0000   CA  654  GRA        0.000000
    655  C         38.0687   31.9050    0.0000   CA  655  GRA        0.000000
    656  C         39.2968   32.6140    0.0000   CA  656  GRA        0.000000
    657  C         41.7528   29.7780    0.0000   CA  657  GRA        0.000000
    658  C         40.5248   30.4870    0.0000   CA  658  GRA        0.000000
    659  C         40.5248   31.9050    0.0000   CA  659  GRA        0.000000
    660  C         41.7528   32.6140    0.0000   CA  660  GRA        0.000000
    661  C         44.2089   29.7780    0.0000   CA  661  GRA        0.000000
    662  C         42.9808   30.4870    0.0000   CA  662  GRA        0.000000
    663  C         42.9808   31.9050    0.0000   CA  663  GRA        0.000000
    664  C         44.2089   32.6140    0.0000   CA  664  GRA        0.000000
    665  C         46.6649   29.7780    0.0000   CA  665  GRA        0.000000
    666  C         45.4369   30.4870    0.0000   CA  666  GRA        0.000000
    667  C         45.4369   31.9050    0.0000   CA  667  GRA        0.000000
    668  C         46.6649   32.6140    0.0000   CA  668  GRA        0.000000
    669  C         49.1210   29.7780    0.0000   CA  669  GRA        0.000000
    670  C         47.8929   30.4870    0.0000   CA  670  GRA        0.000000
    671  C         47.8929   31.9050    0.0000   CA  671  GRA        0.000000
    672  C         49.1210   32.6140    0.0000   CA  672  GRA        0.000000
    673  C          0.0000   34.0320    0.0000   CA  673  GRA        0.000000
    674  C         -1.2280   34.7410    0.0000   CA  674  GRA        0.000000
    675  C         -1.2280   36.1590    0.0000   CA  675  GRA        0.000000
    676  C          0.0000   36.8680    0.0000   CA  676  GRA        0.000000
    677  C          2.4560   34.0320    0.0000   CA  677  GRA        0.000000
    678  C          1.2280   34.7410    0.0000   CA  678  GRA        0.000000
    679  C          1.2280   36.1590    0.0000   CA  679  GRA        0.000000
    680  C          2.4560   36.8680    0.0000   CA  680  GRA        0.000000
    681  C          4.9121   34.0320    0.0000   CA  681  GRA        0.000000
    682  C          3.6841   34.7410    0.0000   CA  682  GRA        0.000000
    683  C          3.6841   36.1590    0.0000   CA  683  GRA        0.000000
    684  C          4.9121   36.8680    0.0000   CA  684  GRA        0.000000
    685  C          7.3681   34.0320    0.0000   CA  685  GRA        0.000000
    686  C          6.1401   34.7410    0.0000   CA  686  GRA        0.000000
    687  C          6.1401   36.1590    0.0000   CA  687  GRA        0.000000
    688  C          7.3681   36.8680    0.0000   CA  688  GRA        0.000000
    689  C          9.8242   34.0320    0.0000   CA  689  GRA        0.000000
    690  C          8.5962   34.7410    0.0000   CA  690  GRA        0.000000
    691  C          8.5962   36.1590    0.0000   CA  691  GRA        0.000000
    692  C          9.8242   36.8680    0.0000   CA  692  GRA        0.000000
    693  C         12.2802   34.0320    0.0000   CA  693  GRA        0.000000
    694  C         11.0522   34.7410    0.0000   CA  694  GRA        0.000000
    695  C         11.0522   36.1590    0.0000   CA  695  GRA        0.000000
    696  C         12.2802   36.8680    0.0000   CA  696  GRA        0.000000
    697  C         14.7363   34.0320    0.0000   CA  697  GRA        0.000000
    698  C         13.5083   34.7410    0.0000   CA  698  GRA        0.000000
    699  C         13.5083   36.1590    0.0000   CA  699  GRA        0.000000
    700  C         14.7363   36.8680    0.0000   CA  700  GRA        0.000000
    701  C         17.1923   34.0320    0.0000   CA  701  GRA        0.000000
    702  C         15.9643   34.7410    0.0000   CA  702  GRA        0.000000
    703  C         15.9643   36.1590    0.0000   CA  703  GRA        0.000000
    704  C         17.1923   36.8680    0.0000   CA  704  GRA        0.000000
    705  C         19.6484   34.0320    0.0000   CA  705  GRA        0.000000
    706  C         18.4204   34.7410    0.0000   CA  706  GRA        0.000000
    707  C         18.4204   36.1590    0.0000   CA  707  GRA        0.000000
    708  C         19.6484   36.8680    0.0000   CA  708  GRA        0.000000
    709  C         22.1044   34.0320    0.0000   CA  709  GRA        0.000000
    710  C         20.8764   34.7410    0.0000   CA  710  GRA        0.000000
    711  C         20.8764   36.1590    0.0000   CA  711  GRA        0.000000
    712  C         22.1044   36.8680    0.0000   CA  712  GRA        0.000000
    713  C         24.5605   34.0320    0.0000   CA  713  GRA        0.000000
    714  C         23.3325   34.7410    0.0000   CA  714  GRA        0.000000
    715  C         23.3325   36.1590    0.0000   CA  715  GRA        0.000000
    716  C         24.5605   36.8680    0.0000   CA  716  GRA        0.000000
    717  C         27.0165   34.0320    0.0000   CA  717  GRA        0.000000
    718  C         25.7885   34.7410    0.0000   CA  718  GRA        0.000000
    719  C         25.7885   36.1590    0.0000   CA  719  GRA        0.000000
    720  C         27.0165   36.8680    0.0000   CA  720  GRA        0.000000
    721  C         29.4726   34.0320    0.0000   CA  721  GRA        0.000000
    722  C         28.2446   34.7410    0.0000   CA  722  GRA        0.000000
    723  C         28.2446   36.1590    0.0000   CA  723  GRA        0.000000
    724  C         29.4726   36.8680    0.0000   CA  724  GRA        0.000000
    725  C         31.9286   34.0320    0.0000   CA  725  GRA        0.000000
    726  C         30.7006   34.7410    0.0000   CA  726  GRA        0.000000
    727  C         30.7006   36.1590    0.0000   CA  727  GRA        0.000000
    728  C         31.9286   36.8680    0.0000   CA  728  GRA        0.000000
    729  C         34.3847   34.0320    0.0000   CA  729  GRA        0.000000
    730  C         33.1566   34.7410    0.0000   CA  730  GRA        0.000000
    731  C         33.1566   36.1590    0.0000   CA  731  GRA        0.000000
    732  C         34.3847   36.8680    0.0000   CA  732  GRA        0.000000
    733  C         36.8407   34.0320    0.0000   CA  733  GRA        0.000000
    734  C         35.6127   34.7410    0.0000   CA  734  GRA        0.000000
    735  C         35.6127   36.1590    0.0000   CA  735  GRA        0.000000
    736  C         36.8407   36.8680    0.0000   CA  736  GRA        0.000000
    737  C         39.2968   34.0320    0.0000   CA  737  GRA        0.000000
    738  C         38.0687   34.7410    0.0000   CA  738  GRA        0.000000
    739  C         38.0687   36.1590    0.0000   CA  739  GRA        0.000000
    740  C         39.2968   36.8680    0.0000   CA  740  GRA        0.000000
    741  C         41.7528   34.0320    0.0000   CA  741  GRA        0.000000
    742  C         40.5248   34.7410    0.0000   CA  742  GRA        0.000000
    743  C         40.5248   36.1590    0.0000   CA  743  GRA        0.000000
    744  C         41.7528   36.8680    0.0000   CA  744  GRA        0.000000
    745  C         44.2089   34.0320    0.0000   CA  745  GRA        0.000000
    746  C         42.9808   34.7410    0.0000   CA  746  GRA        0.000000
    747  C         42.9808   36.1590    0.0000   CA  747  GRA        0.000000
    748  C         44.2089   36.8680    0.0000   CA  748  GRA        0.000000
    749  C         46.6649   34.0320    0.0000   CA  749  GRA        0.000000
    750  C         45.4369   34.7410    0.0000   CA  750  GRA        0.000000
    751  C         45.4369   36.1590    0.0000   CA  751  GRA        0.000000
    752  C         46.6649   36.8680    0.0000   CA  752  GRA        0.000000
    753  C         49.1210   34.0320    0.0000   CA  753  GRA        0.000000
    754  C         47.8929   34.7410    0.0000   CA  754  GRA        0.000000
    755  C         47.8929   36.1590    0.0000   CA  755  GRA        0.000000
    756  C         49.1210   36.8680    0.0000   CA  756  GRA        0.000000
    757  C          0.0000   38.2860    0.0000   CA  757  GRA        0.000000
    758  C         -1.2280   38.9950    0.0000   CA  758  GRA        0.000000
    759  C         -1.2280   40.4130    0.0000   CA  759  GRA        0.000000
    760  C          0.0000   41.1220    0.0000   CA  760  GRA        0.000000
    761  C          2.4560   38.2860    0.0000   CA  761  GRA        0.000000
    762  C          1.2280   38.9950    0.0000   CA  762  GRA        0.000000
    763  C          1.2280   40.4130    0.0000   CA  763  GRA        0.000000
    764  C          2.4560   41.1220    0.0000   CA  764  GRA        0.000000
    765  C          4.9121   38.2860    0.0000   CA  765  GRA        0.000000
    766  C          3.6841   38.9950    0.0000   CA  766  GRA        0.000000
    767  C          3.6841   40.4130    0.0000   CA  767  GRA        0.000000
    768  C          4.9121   41.1220    0.0000   CA  768  GRA        0.000000
    769  C          7.3681   38.2860    0.0000   CA  769  GRA        0.000000
    770  C          6.1401   38.9950    0.0000   CA  770  GRA        0.000000
    771  C          6.1401   40.4130    0.0000   CA  771  GRA        0.000000
    772  C          7.3681   41.1220    0.0000   CA  772  GRA        0.000000
    773  C          9.8242   38.2860    0.0000   CA  773  GRA        0.000000
    774  C          8.5962   38.9950    0.0000   CA  774  GRA        0.000000
    775  C          8.5962   40.4130    0.0000   CA  775  GRA        0.000000
    776  C          9.8242   41.1220    0.0000   CA  776  GRA        0.000000
    777  C         12.2802   38.2860    0.0000   CA  777  GRA        0.000000
    778  C         11.0522   38.9950    0.0000   CA  778  GRA        0.000000
    779  C         11.0522   40.4130    0.0000   CA  779  GRA        0.000000
    780  C         12.2802   41.1220    0.0000   CA  780  GRA        0.000000
    781  C         14.7363   38.2860    0.0000   CA  781  GRA        0.000000
    782  C         13.5083   38.9950    0.0000   CA  782  GRA        0.000000
    783  C         13.5083   40.4130    0.0000   CA  783  GRA        0.000000
    784  C         14.7363   41.1220    0.0000   CA  784  GRA        0.000000
    785  C         17.1923   38.2860    0.0000   CA  785  GRA        0.000000
    786  C         15.9643   38.9950    0.0000   CA  786  GRA        0.000000
    787  C         15.9643   40.4130    0.0000   CA  787  GRA        0.000000
    788  C         17.1923   41.1220    0.0000   CA  788  GRA        0.000000
    789  C         19.6484   38.2860    0.0000   CA  789  GRA        0.000000
    790  C         18.4204   38.9950    0.0000   CA  790  GRA        0.000000
    791  C         18.4204   40.4130    0.0000   CA  791  GRA        0.000000
    792  C         19.6484   41.1220    0.0000   CA  792  GRA        0.000000
    793  C         22.1044   38.2860    0.0000   CA  793  GRA        0.000000
    794  C         20.8764   38.9950    0.0000   CA  794  GRA        0.000000
    795  C         20.8764   40.4130    0.0000   CA  795  GRA        0.000000
    796  C         22.1044   41.1220    0.0000   CA  796  GRA        0.000000
    797  C         24.5605   38.2860    0.0000   CA  797  GRA        0.000000
    798  C         23.3325   38.9950    0.0000   CA  798  GRA        0.000000
    799  C         23.3325   40.4130    0.0000   CA  799  GRA        0.000000
    800  C         24.5605   41.1220    0.0000   CA  800  GRA        0.000000
    801  C         27.0165   38.2860    0.0000   CA  801  GRA        0.000000
    802  C         25.7885   38.9950    0.0000   CA  802  GRA        0.000000
    803  C         25.7885   40.4130    0.0000   CA  803  GRA        0.000000
    804  C         27.0165   41.1220    0.0000   CA  804  GRA        0.000000
    805  C         29.4726   38.2860    0.0000   CA  805  GRA        0.000000
    806  C         28.2446   38.9950    0.0000   CA  806  GRA        0.000000
    807  C         28.2446   40.4130    0.0000   CA  807  GRA        0.000000
    808  C         29.4726   41.1220    0.0000   CA  808  GRA        0.000000
    809  C         31.9286   38.2860    0.0000   CA  809  GRA        0.000000
    810  C         30.7006   38.9950    0.0000   CA  810  GRA        0.000000
    811  C         30.7006   40.4130    0.0000   CA  811  GRA        0.000000
    812  C         31.9286   41.1220    0.0000   CA  812  GRA        0.000000
    813  C         34.3847   38.2860    0.0000   CA  813  GRA        0.000000
    814  C         33.1566   38.9950    0.0000   CA  814  GRA        0.000000
    815  C         33.1566   40.4130    0.0000   CA  815  GRA        0.000000
    816  C         34.3847   41.1220    0.0000   CA  816  GRA        0.000000
    817  C         36.8407   38.2860    0.0000   CA  817  GRA        0.000000
    818  C         35.6127   38.9950    0.0000   CA  818  GRA        0.000000
    819  C         35.6127   40.4130    0.0000   CA  819  GRA        0.000000
    820  C         36.8407   41.1220    0.0000   CA  820  GRA        0.000000
    821  C         39.2968   38.2860    0.0000   CA  821  GRA        0.000000
    822  C         38.0687   38.9950    0.0000   CA  822  GRA        0.000000
    823  C         38.0687   40.4130    0.0000   CA  823  GRA        0.000000
    824  C         39.2968   41.1220    0.0000   CA  824  GRA        0.000000
    825  C         41.7528   38.2860    0.0000   CA  825  GRA        0.000000
    826  C         40.5248   38.9950    0.0000   CA  826  GRA        0.000000
    827  C         40.5248   40.4130    0.0000   CA  827  GRA        0.000000
    828  C         41.7528   41.1220    0.0000   CA  828  GRA        0.000000
    829  C         44.2089   38.2860    0.0000   CA  829  GRA        0.000000
    830  C         42.9808   38.9950    0.0000   CA  830  GRA        0.000000
    831  C         42.9808   40.4130    0.0000   CA  831  GRA        0.000000
    832  C         44.2089   41.1220    0.0000   CA  832  GRA        0.000000
    833  C         46.6649   38.2860    0.0000   CA  833  GRA        0.000000
    834  C         45.4369   38.9950    0.0000   CA  834  GRA        0.000000
    835  C         45.4369   40.4130    0.0000   CA  835  GRA        0.000000
    836  C         46.6649   41.1220    0.0000   CA  836  GRA        0.000000
    837  C         49.1210   38.2860    0.0000   CA  837  GRA        0.000000
    838  C         47.8929   38.9950    0.0000   CA  838  GRA        0.000000
    839  C         47.8929   40.4130    0.0000   CA  839  GRA        0.000000
    840  C         49.1210   41.1220    0.0000   CA  840  GRA        0.000000
    841  C          0.0000   42.5400    0.0000   CA  841  GRA        0.000000
    842  C         -1.2280   43.2490    0.0000   CA  842  GRA        0.000000
    843  C         -1.2280   44.6670    0.0000   CA  843  GRA        0.000000
    844  C          0.0000   45.3760    0.0000   CA  844  GRA        0.000000
    845  C          2.4560   42.5400    0.0000   CA  845  GRA        0.000000
    846  C          1.2280   43.2490    0.0000   CA  846  GRA        0.000000
    847  C          1.2280   44.6670    0.0000   CA  847  GRA        0.000000
    848  C          2.4560   45.3760    0.0000   CA  848  GRA        0.000000
    849  C          4.9121   42.5400    0.0000   CA  849  GRA        0.000000
    850  C          3.6841   43.2490    0.0000   CA  850  GRA        0.000000
    851  C          3.6841   44.6670    0.0000   CA  851  GRA        0.000000
    852  C          4.9121   45.3760    0.0000   CA  852  GRA        0.000000
    853  C          7.3681   42.5400    0.0000   CA  853  GRA        0.000000
    854  C          6.1401   43.2490    0.0000   CA  854  GRA        0.000000
    855  C          6.1401   44.6670    0.0000   CA  855  GRA        0.000000
    856  C          7.3681   45.3760    0.0000   CA  856  GRA        0.000000
    857  C          9.8242   42.5400    0.0000   CA  857  GRA        0.000000
    858  C          8.5962   43.2490    0.0000   CA  858  GRA        0.000000
    859  C          8.5962   44.6670    0.0000   CA  859  GRA        0.000000
    860  C          9.8242   45.3760    0.0000   CA  860  GRA        0.000000
    861  C         12.2802   42.5400    0.0000   CA  861  GRA        0.000000
    862  C         11.0522   43.2490    0.0000   CA  862  GRA        0.000000
    863  C         11.0522   44.6670    0.0000   CA  863  GRA        0.000000
    864  C         12.2802   45.3760    0.0000   CA  864  GRA        0.000000
    865  C         14.7363   42.5400    0.0000   CA  865  GRA        0.000000
    866  C         13.5083   43.2490    0.0000   CA  866  GRA        0.000000
    867  C         13.5083   44.6670    0.0000   CA  867  GRA        0.000000
    868  C         14.7363   45.3760    0.0000   CA  868  GRA        0.000000
    869  C         17.1923   42.5400    0.0000   CA  869  GRA        0.000000
    870  C         15.9643   43.2490    0.0000   CA  870  GRA        0.000000
    871  C         15.9643   44.6670    0.0000   CA  871  GRA        0.000000
    872  C         17.1923   45.3760    0.0000   CA  872  GRA        0.000000
    873  C         19.6484   42.5400    0.0000   CA  873  GRA        0.000000
    874  C         18.4204   43.2490    0.0000   CA  874  GRA        0.000000
    875  C         18.4204   44.6670    0.0000   CA  875  GRA        0.000000
    876  C         19.6484   45.3760    0.0000   CA  876  GRA        0.000000
    877  C         22.1044   42.5400    0.0000   CA  877  GRA        0.000000
    878  C         20.8764   43.2490    0.0000   CA  878  GRA        0.000000
    879  C         20.8764   44.6670    0.0000   CA  879  GRA        0.000000
    880  C         22.1044   45.3760    0.0000   CA  880  GRA        0.000000
    881  C         24.5605   42.5400    0.0000   CA  881  GRA        0.000000
    882  C         23.3325   43.2490    0.0000   CA  882  GRA        0.000000
    883  C         23.3325   44.6670    0.0000   CA  883  GRA        0.000000
    884  C         24.5605   45.3760    0.0000   CA  884  GRA        0.000000
    885  C         27.0165   42.5400    0.0000   CA  885  GRA        0.000000
    886  C         25.7885   43.2490    0.0000   CA  886  GRA        0.000000
    887  C         25.7885   44.6670    0.0000   CA  887  GRA        0.000000
    888  C         27.0165   45.3760    0.0000   CA  888  GRA        0.000000
    889  C         29.4726   42.5400    0.0000   CA  889  GRA        0.000000
    890  C         28.2446   43.2490    0.0000   CA  890  GRA        0.000000
    891  C         28.2446   44.6670    0.0000   CA  891  GRA        0.000000
    892  C         29.4726   45.3760    0.0000   CA  892  GRA        0.000000
    893  C         31.9286   42.5400    0.0000   CA  893  GRA        0.000000
    894  C         30.7006   43.2490    0.0000   CA  894  GRA        0.000000
    895  C         30.7006   44.6670    0.0000   CA  895  GRA        0.000000
    896  C         31.9286   45.3760    0.0000   CA  896  GRA        0.000000
    897  C         34.3847   42.5400    0.0000   CA  897  GRA        0.000000
    898  C         33.1566   43.2490    0.0000   CA  898  GRA        0.000000
    899  C         33.1566   44.6670    0.0000   CA  899  GRA        0.000000
    900  C         34.3847   45.3760    0.0000   CA  900  GRA        0.000000
    901  C         36.8407   42.5400    0.0000   CA  901  GRA        0.000000
    902  C         35.6127   43.2490    0.0000   CA  902  GRA        0.000000
    903  C         35.6127   44.6670    0.0000   CA  903  GRA        0.000000
    904  C         36.8407   45.3760    0.0000   CA  904  GRA        0.000000
    905  C         39.2968   42.5400    0.0000   CA  905  GRA        0.000000
    906  C         38.0687   43.2490    0.0000   CA  906  GRA        0.000000
    907  C         38.0687   44.6670    0.0000   CA  907  GRA        0.000000
    908  C         39.2968   45.3760    0.0000   CA  908  GRA        0.000000
    909  C         41.7528   42.5400    0.0000   CA  909  GRA        0.000000
    910  C         40.5248   43.2490    0.0000   CA  910  GRA        0.000000
    911  C         40.5248   44.6670    0.0000   CA  911  GRA        0.000000
    912  C         41.7528   45.3760    0.0000   CA  912  GRA        0.000000
    913  C         44.2089   42.5400    0.0000   CA  913  GRA        0.000000
    914  C         42.9808   43.2490    0.0000   CA  914  GRA        0.000000
    915  C         42.9808   44.6670    0.0000   CA  915  GRA        0.000000
    916  C         44.2089   45.3760    0.0000   CA  916  GRA        0.000000
    917  C         46.6649   42.5400    0.0000   CA  917  GRA        0.000000
    918  C         45.4369   43.2490    0.0000   CA  918  GRA        0.000000
    919  C         45.4369   44.6670    0.0000   CA  919  GRA        0.000000
    920  C         46.6649   45.3760    0.0000   CA  920  GRA        0.000000
    921  C         49.1210   42.5400    0.0000   CA  921  GRA        0.000000
    922  C         47.8929   43.2490    0.0000   CA  922  GRA        0.000000
    923  C         47.8929   44.6670    0.0000   CA  923  GRA        0.000000
    924  C         49.1210   45.3760    0.0000   CA  924  GRA        0.000000
    925  C          0.0000   46.7940    0.0000   CA  925  GRA        0.000000
    926  C         -1.2280   47.5030    0.0000   CA  926  GRA        0.000000
    927  C         -1.2280   48.9210    0.0000   CA  927  GRA        0.000000
    928  C          0.0000   49.6300    0.0000   CA  928  GRA        0.000000
    929  C          2.4560   46.7940    0.0000   CA  929  GRA        0.000000
    930  C          1.2280   47.5030    0.0000   CA  930  GRA        0.000000
    931  C          1.2280   48.9210    0.0000   CA  931  GRA        0.000000
    932  C          2.4560   49.6300    0.0000   CA  932  GRA        0.000000
    933  C          4.9121   46.7940    0.0000   CA  933  GRA        0.000000
    934  C          3.6841   47.5030    0.0000   CA  934  GRA        0.000000
    935  C          3.6841   48.9210    0.0000   CA  935  GRA        0.000000
    936  C          4.9121   49.6300    0.0000   CA  936  GRA        0.000000
    937  C          7.3681   46.7940    0.0000   CA  937  GRA        0.000000
    938  C          6.1401   47.5030    0.0000   CA  938  GRA        0.000000
    939  C          6.1401   48.9210    0.0000   CA  939  GRA        0.000000
    940  C          7.3681   49.6300    0.0000   CA  940  GRA        0.000000
    941  C          9.8242   46.7940    0.0000   CA  941  GRA        0.000000
    942  C          8.5962   47.5030    0.0000   CA  942  GRA        0.000000
    943  C          8.5962   48.9210    0.0000   CA  943  GRA        0.000000
    944  C          9.8242   49.6300    0.0000   CA  944  GRA        0.000000
    945  C         12.2802   46.7940    0.0000   CA  945  GRA        0.000000
    946  C         11.0522   47.5030    0.0000   CA  946  GRA        0.000000
    947  C         11.0522   48.9210    0.0000   CA  947  GRA        0.000000
    948  C         12.2802   49.6300    0.0000   CA  948  GRA        0.000000
    949  C         14.7363   46.7940    0.0000   CA  949  GRA        0.000000
    950  C         13.5083   47.5030    0.0000   CA  950  GRA        0.000000
    951  C         13.5083   48.9210    0.0000   CA  951  GRA        0.000000
    952  C         14.7363   49.6300    0.0000   CA  952  GRA        0.000000
    953  C         17.1923   46.7940    0.0000   CA  953  GRA        0.000000
    954  C         15.9643   47.5030    0.0000   CA  954  GRA        0.000000
    955  C         15.9643   48.9210    0.0000   CA  955  GRA        0.000000
    956  C         17.1923   49.6300    0.0000   CA  956  GRA        0.000000
    957  C         19.6484   46.7940    0.0000   CA  957  GRA        0.000000
    958  C         18.4204   47.5030    0.0000   CA  958  GRA        0.000000
    959  C         18.4204   48.9210    0.0000   CA  959  GRA        0.000000
    960  C         19.6484   49.6300    0.0000   CA  960  GRA        0.000000
    961  C         22.1044   46.7940    0.0000   CA  961  GRA        0.000000
    962  C         20.8764   47.5030    0.0000   CA  962  GRA        0.000000
    963  C         20.8764   48.9210    0.0000   CA  963  GRA        0.000000
    964  C         22.1044   49.6300    0.0000   CA  964  GRA        0.000000
    965  C         24.5605   46.7940    0.0000   CA  965  GRA        0.000000
    966  C         23.3325   47.5030    0.0000   CA  966  GRA        0.000000
    967  C         23.3325   48.9210    0.0000   CA  967  GRA        0.000000
    968  C         24.5605   49.6300    0.0000   CA  968  GRA        0.000000
    969  C         27.0165   46.7940    0.0000   CA  969  GRA        0.000000
    970  C         25.7885   47.5030    0.0000   CA  970  GRA        0.000000
    971  C         25.7885   48.9210    0.0000   CA  971  GRA        0.000000
    972  C         27.0165   49.6300    0.0000   CA  972  GRA        0.000000
    973  C         29.4726   46.7940    0.0000   CA  973  GRA        0.000000
    974  C         28.2446   47.5030    0.0000   CA  974  GRA        0.000000
    975  C         28.2446   48.9210    0.0000   CA  975  GRA        0.000000
    976  C         29.4726   49.6300    0.0000   CA  976  GRA        0.000000
    977  C         31.9286   46.7940    0.0000   CA  977  GRA        0.000000
    978  C         30.7006   47.5030    0.0000   CA  978  GRA        0.000000
    979  C         30.7006   48.9210    0.0000   CA  979  GRA        0.000000
    980  C         31.9286   49.6300    0.0000   CA  980  GRA        0.000000
    981  C         34.3847   46.7940    0.0000   CA  981  GRA        0.000000
    982  C         33.1566   47.5030    0.0000   CA  982  GRA        0.000000
    983  C         33.1566   48.9210    0.0000   CA  983  GRA        0.000000
    984  C         34.3847   49.6300    0.0000   CA  984  GRA        0.000000
    985  C         36.8407   46.7940    0.0000   CA  985  GRA        0.000000
    986  C         35.6127   47.5030    0.0000   CA  986  GRA        0.000000
    987  C         35.6127   48.9210    0.0000   CA  987  GRA        0.000000
    988  C         36.8407   49.6300    0.0000   CA  988  GRA        0.000000
    989  C         39.2968   46.7940    0.0000   CA  989  GRA        0.000000
    990  C         38.0687   47.5030    0.0000   CA  990  GRA        0.000000
    991  C         38.0687   48.9210    0.0000   CA  991  GRA        0.000000
    992  C         39.2968   49.6300    0.0000   CA  992  GRA        0.000000
    993  C         41.7528   46.7940    0.0000   CA  993  GRA        0.000000
    994  C         40.5248   47.5030    0.0000   CA  994  GRA        0.000000
    995  C         40.5248   48.9210    0.0000   CA  995  GRA        0.000000
    996  C         41.7528   49.6300    0.0000   CA  996  GRA        0.000000
    997  C         44.2089   46.7940    0.0000   CA  997  GRA        0.000000
    998  C         42.9808   47.5030    0.0000   CA  998  GRA        0.000000
    999  C         42.9808   48.9210    0.0000   CA  999  GRA        0.000000
   1000  C         44.2089   49.6300    0.0000   CA 1000  GRA        0.000000
   1001  C         46.6649   46.7940    0.0000   CA 1001  GRA        0.000000
   1002  C         45.4369   47.5030    0.0000   CA 1002  GRA        0.000000
   1003  C         45.4369   48.9210    0.0000   CA 1003  GRA        0.000000
   1004  C         46.6649   49.6300    0.0000   CA 1004  GRA        0.000000
   1005  C         49.1210   46.7940    0.0000   CA 1005  GRA        0.000000
   1006  C         47.8929   47.5030    0.0000   CA 1006  GRA        0.000000
   1007  C         47.8929   48.9210    0.0000   CA 1007  GRA        0.000000
   1008  C         49.1210   49.6300    0.0000   CA 1008  GRA        0.000000
   1009  C          0.0000    1.4180    3.3500   CA 1009  GRA        0.000000
   1010  C         -1.2280    2.1270    3.3500   CA 1010  GRA        0.000000
   1011  C         -1.2280    3.5450    3.3500   CA 1011  GRA        0.000000
   1012  C          0.0000    4.2540    3.3500   CA 1012  GRA        0.000000
   1013  C          2.4560    1.4180    3.3500   CA 1013  GRA        0.000000
   1014  C          1.2280    2.1270    3.3500   CA 1014  GRA        0.000000
   1015  C          1.2280    3.5450    3.3500   CA 1015  GRA        0.000000
   1016  C          2.4560    4.2540    3.3500   CA 1016  GRA        0.000000
   1017  C          4.9121    1.4180    3.3500   CA 1017  GRA        0.000000
   1018  C          3.6841    2.1270    3.3500   CA 1018  GRA        0.000000
   1019  C          3.6841    3.5450    3.3500   CA 1019  GRA        0.000000
   1020  C          4.9121    4.2540    3.3500   CA 1020  GRA        0.000000
   1021  C          7.3681    1.4180    3.3500   CA 1021  GRA        0.000000
   1022  C          6.1401    2.1270    3.3500   CA 1022  GRA        0.000000
   1023  C          6.1401    3.5450    3.3500   CA 1023  GRA        0.000000
   1024  C          7.3681    4.2540    3.3500   CA 1024  GRA        0.000000
   1025  C          9.8242    1.4180    3.3500   CA 1025  GRA        0.000000
   1026  C          8.5962    2.1270    3.3500   CA 1026  GRA        0.000000
   1027  C          8.5962    3.5450    3.3500   CA 1027  GRA        0.000000
   1028  C          9.8242    4.2540    3.3500   CA 1028  GRA        0.000000
   1029  C         12.2802    1.4180    3.3500   CA 1029  GRA        0.000000
   1030  C         11.0522    2.1270    3.3500   CA 1030  GRA        0.000000
   1031  C         11.0522    3.5450    3.3500   CA 1031  GRA        0.000000
   1032  C         12.2802    4.2540    3.3500   CA 1032  GRA        0.000000
   1033  C         14.7363    1.4180    3.3500   CA 1033  GRA        0.000000
   1034  C         13.5083    2.1270    3.3500   CA 1034  GRA        0.000000
   1035  C         13.5083    3.5450    3.3500   CA 1035  GRA        0.000000
   1036  C         14.7363    4.2540    3.3500   CA 1036  GRA        0.000000
   1037  C         17.1923    1.4180    3.3500   CA 1037  GRA        0.000000
   1038  C         15.9643    2.1270    3.3500   CA 1038  GRA        0.000000
   1039  C         15.9643    3.5450    3.3500   CA 1039  GRA        0.000000
   1040  C         17.1923    4.2540    3.3500   CA 1040  GRA        0.000000
   1041  C         19.6484    1.4180    3.3500   CA 1041  GRA        0.000000
   1042  C         18.4204    2.1270    3.3500   CA 1042  GRA        0.000000
   1043  C         18.4204    3.5450    3.3500   CA 1043  GRA        0.000000
   1044  C         19.6484    4.2540    3.3500   CA 1044  GRA        0.000000
   1045  C         22.1044    1.4180    3.3500   CA 1045  GRA        0.000000
   1046  C         20.8764    2.1270    3.3500   CA 1046  GRA        0.000000
   1047  C         20.8764    3.5450    3.3500   CA 1047  GRA        0.000000
   1048  C         22.1044    4.2540    3.3500   CA 1048  GRA        0.000000
   1049  C         24.5605    1.4180    3.3500   CA 1049  GRA        0.000000
   1050  C         23.3325    2.1270    3.3500   CA 1050  GRA        0.000000
   1051  C         23.3325    3.5450    3.3500   CA 1051  GRA        0.000000
   1052  C         24.5605    4.2540    3.3500   CA 1052  GRA        0.000000
   1053  C         27.0165    1.4180    3.3500   CA 1053  GRA        0.000000
   1054  C         25.7885    2.1270    3.3500   CA 1054  GRA        0.000000
   1055  C         25.7885    3.5450    3.3500   CA 1055  GRA        0.000000
   1056  C         27.0165    4.2540    3.3500   CA 1056  GRA        0.000000
   1057  C         29.4726    1.4180    3.3500   CA 1057  GRA        0.000000
   1058  C         28.2446    2.1270    3.3500   CA 1058  GRA        0.000000
   1059  C         28.2446    3.5450    3.3500   CA 1059  GRA        0.000000
   1060  C         29.4726    4.2540    3.3500   CA 1060  GRA        0.000000
   1061  C         31.9286    1.4180    3.3500   CA 1061  GRA        0.000000
   1062  C         30.7006    2.1270    3.3500   CA 1062  GRA        0.000000
   1063  C         30.7006    3.5450    3.3500   CA 1063  GRA        0.000000
   1064  C         31.9286    4.2540    3.3500   CA 1064  GRA        0.000000
   1065  C         34.3847    1.4180    3.3500   CA 1065  GRA        0.000000
   1066  C         33.1566    2.1270    3.3500   CA 1066  GRA        0.000000
   1067  C         33.1566    3.5450    3.3500   CA 1067  GRA        0.000000
   1068  C         34.3847    4.2540    3.3500   CA 1068  GRA        0.000000
   1069  C         36.8407    1.4180    3.3500   CA 1069  GRA        0.000000
   1070  C         35.6127    2.1270    3.3500   CA 1070  GRA        0.000000
   1071  C         35.6127    3.5450    3.3500   CA 1071  GRA        0.000000
   1072  C         36.8407    4.2540    3.3500   CA 1072  GRA        0.000000
   1073  C         39.2968    1.4180    3.3500   CA 1073  GRA        0.000000
   1074  C         38.0687    2.1270    3.3500   CA 1074  GRA        0.000000
   1075  C         38.0687    3.5450    3.3500   CA 1075  GRA        0.000000
   1076  C         39.2968    4.2540    3.3500   CA 1076  GRA        0.000000
   1077  C         41.7528    1.4180    3.3500   CA 1077  GRA        0.000000
   1078  C         40.5248    2.1270    3.3500   CA 1078  GRA        0.000000
   1079  C         40.5248    3.5450    3.3500   CA 1079  GRA        0.000000
   1080  C         41.7528    4.2540    3.3500   CA 1080  GRA        0.000000
   1081  C         44.2089    1.4180    3.3500   CA 1081  GRA        0.000000
   1082  C         42.9808    2.1270    3.3500   CA 1082  GRA        0.000000
   1083  C         42.9808    3.5450    3.3500   CA 1083  GRA        0.000000
   1084  C         44.2089    4.2540    3.3500   CA 1084  GRA        0.000000
   1085  C         46.6649    1.4180    3.3500   CA 1085  GRA        0.000000
   1086  C         45.4369    2.1270    3.3500   CA 1086  GRA        0.000000
   1087  C         45.4369    3.5450    3.3500   CA 1087  GRA        0.000000
   1088  C         46.6649    4.2540    3.3500   CA 1088  GRA        0.000000
   1089  C         49.1210    1.4180    3.3500   CA 1089  GRA        0.000000
   1090  C         47.8929    2.1270    3.3500   CA 1090  GRA        0.000000
   1091  C         47.8929    3.5450    3.3500   CA 1091  GRA        0.000000
   1092  C         49.1210    4.2540    3.3500   CA 1092  GRA        0.000000
   1093  C          0.0000    5.6720    3.3500   CA 1093  GRA        0.000000
   1094  C         -1.2280    6.3810    3.3500   CA 1094  GRA        0.000000
   1095  C         -1.2280    7.7990    3.3500   CA 1095  GRA        0.000000
   1096  C          0.0000    8.5080    3.3500   CA 1096  GRA        0.000000
   1097  C          2.4560    5.6720    3.3500   CA 1097  GRA        0.000000
   1098  C          1.2280    6.3810    3.3500   CA 1098  GRA        0.000000
   1099  C          1.2280    7.7990    3.3500   CA 1099  GRA        0.000000
   1100  C          2.4560    8.5080    3.3500   CA 1100  GRA        0.000000
   1101  C          4.9121    5.6720    3.3500   CA 1101  GRA        0.000000
   1102  C          3.6841    6.3810    3.3500   CA 1102  GRA        0.000000
   1103  C          3.6841    7.7990    3.3500   CA 1103  GRA        0.000000
   1104  C          4.9121    8.5080    3.3500   CA 1104  GRA        0.000000
   1105  C          7.3681    5.6720    3.3500   CA 1105  GRA        0.000000
   1106  C          6.1401    6.3810    3.3500   CA 1106  GRA        0.000000
   1107  C          6.1401    7.7990    3.3500   CA 1107  GRA        0.000000
   1108  C          7.3681    8.5080    3.3500   CA 1108  GRA        0.000000
   1109  C          9.8242    5.6720    3.3500   CA 1109  GRA        0.000000
   1110  C          8.5962    6.3810    3.3500   CA 1110  GRA        0.000000
   1111  C          8.5962    7.7990    3.3500   CA 1111  GRA        0.000000
   1112  C          9.8242    8.5080    3.3500   CA 1112  GRA        0.000000
   1113  C         12.2802    5.6720    3.3500   CA 1113  GRA        0.000000
   1114  C         11.0522    6.3810    3.3500   CA 1114  GRA        0.000000
   1115  C         11.0522    7.7990    3.3500   CA 1115  GRA        0.000000
   1116  C         12.2802    8.5080    3.3500   CA 1116  GRA        0.000000
   1117  C         14.7363    5.6720    3.3500   CA 1117  GRA        0.000000
   1118  C         13.5083    6.3810    3.3500   CA 1118  GRA        0.000000
   1119  C         13.5083    7.7990    3.3500   CA 1119  GRA        0.000000
   1120  C         14.7363    8.5080    3.3500   CA 1120  GRA        0.000000
   1121  C         17.1923    5.6720    3.3500   CA 1121  GRA        0.000000
   1122  C         15.9643    6.3810    3.3500   CA 1122  GRA        0.000000
   1123  C         15.9643    7.7990    3.3500   CA 1123  GRA        0.000000
   1124  C         17.1923    8.5080    3.3500   CA 1124  GRA        0.000000
   1125  C         19.6484    5.6720    3.3500   CA 1125  GRA        0.000000
   1126  C         18.4204    6.3810    3.3500   CA 1126  GRA        0.000000
   1127  C         18.4204    7.7990    3.3500   CA 1127  GRA        0.000000
   1128  C         19.6484    8.5080    3.3500   CA 1128  GRA        0.000000
   1129  C         22.1044    5.6720    3.3500   CA 1129  GRA        0.000000
   1130  C         20.8764    6.3810    3.3500   CA 1130  GRA        0.000000
   1131  C         20.8764    7.7990    3.3500   CA 1131  GRA        0.000000
   1132  C         22.1044    8.5080    3.3500   CA 1132  GRA        0.000000
   1133  C         24.5605    5.6720    3.3500   CA 1133  GRA        0.000000
   1134  C         23.3325    6.3810    3.3500   CA 1134  GRA        0.000000
   1135  C         23.3325    7.7990    3.3500   CA 1135  GRA        0.000000
   1136  C         24.5605    8.5080    3.3500   CA 1136  GRA        0.000000
   1137  C         27.0165    5.6720    3.3500   CA 1137  GRA        0.000000
   1138  C         25.7885    6.3810    3.3500   CA 1138  GRA        0.000000
   1139  C         25.7885    7.7990    3.3500   CA 1139  GRA        0.000000
   1140  C         27.0165    8.5080    3.3500   CA 1140  GRA        0.000000
   1141  C         29.4726    5.6720    3.3500   CA 1141  GRA        0.000000
   1142  C         28.2446    6.3810    3.3500   CA 1142  GRA        0.000000
   1143  C         28.2446    7.7990    3.3500   CA 1143  GRA        0.000000
   1144  C         29.4726    8.5080    3.3500   CA 1144  GRA        0.000000
   1145  C         31.9286    5.6720    3.3500   CA 1145  GRA        0.000000
   1146  C         30.7006    6.3810    3.3500   CA 1146  GRA        0.000000
   1147  C         30.7006    7.7990    3.3500   CA 1147  GRA        0.000000
   1148  C         31.9286    8.5080    3.3500   CA 1148  GRA        0.000000
   1149  C         34.3847    5.6720    3.3500   CA 1149  GRA        0.000000
   1150  C         33.1566    6.3810    3.3500   CA 1150  GRA        0.000000
   1151  C         33.1566    7.7990    3.3500   CA 1151  GRA        0.000000
   1152  C         34.3847    8.5080    3.3500   CA 1152  GRA        0.000000
   1153  C         36.8407    5.6720    3.3500   CA 1153  GRA        0.000000
   1154  C         35.6127    6.3810    3.3500   CA 1154  GRA        0.000000
   1155  C         35.6127    7.7990    3.3500   CA 1155  GRA        0.000000
   1156  C         36.8407    8.5080    3.3500   CA 1156  GRA        0.000000
   1157  C         39.2968    5.6720    3.3500   CA 1157  GRA        0.000000
   1158  C         38.0687    6.3810    3.3500   CA 1158  GRA        0.000000
   1159  C         38.0687    7.7990    3.3500   CA 1159  GRA        0.000000
   1160  C         39.2968    8.5080    3.3500   CA 1160  GRA        0.000000
   1161  C         41.7528    5.6720    3.3500   CA 1161  GRA        0.000000
   1162  C         40.5248    6.3810    3.3500   CA 1162  GRA        0.000000
   1163  C         40.5248    7.7990    3.3500   CA 1163  GRA        0.000000
   1164  C         41.7528    8.5080    3.3500   CA 1164  GRA        0.000000
   1165  C         44.2089    5.6720    3.3500   CA 1165  GRA        0.000000
   1166  C         42.9808    6.3810    3.3500   CA 1166  GRA        0.000000
   1167  C         42.9808    7.7990    3.3500   CA 1167  GRA        0.000000
   1168  C         44.2089    8.5080    3.3500   CA 1168  GRA        0.000000
   1169  C         46.6649    5.6720    3.3500   CA 1169  GRA        0.000000
   1170  C         45.4369    6.3810    3.3500   CA 1170  GRA        0.000000
   1171  C         45.4369    7.7990    3.3500   CA 1171  GRA        0.000000
   1172  C         46.6649    8.5080    3.3500   CA 1172  GRA        0.000000
   1173  C         49.1210    5.6720    3.3500   CA 1173  GRA        0.000000
   1174  C         47.8929    6.3810    3.3500   CA 1174  GRA        0.000000
   1175  C         47.8929    7.7990    3.3500   CA 1175  GRA        0.000000
   1176  C         49.1210    8.5080    3.3500   CA 1176  GRA        0.000000
   1177  C          0.0000    9.9260    3.3500   CA 1177  GRA        0.000000
   1178  C         -1.2280   10.6350    3.3500   CA 1178  GRA        0.000000
   1179  C         -1.2280   12.0530    3.3500   CA 1179  GRA        0.000000
   1180  C          0.0000   12.7620    3.3500   CA 1180  GRA        0.000000
   1181  C          2.4560    9.9260    3.3500   CA 1181  GRA        0.000000
   1182  C          1.2280   10.6350    3.3500   CA 1182  GRA        0.000000
   1183  C          1.2280   12.0530    3.3500   CA 1183  GRA        0.000000
   1184  C          2.4560   12.7620    3.3500   CA 1184  GRA        0.000000
   1185  C          4.9121    9.9260    3.3500   CA 1185  GRA        0.000000
   1186  C          3.6841   10.6350    3.3500   CA 1186  GRA        0.000000
   1187  C          3.6841   12.0530    3.3500   CA 1187  GRA        0.000000
   1188  C          4.9121   12.7620    3.3500   CA 1188  GRA        0.000000
   1189  C          7.3681    9.9260    3.3500   CA 1189  GRA        0.000000
   1190  C          6.1401   10.6350    3.3500   CA 1190  GRA        0.000000
   1191  C          6.1401   12.0530    3.3500   CA 1191  GRA        0.000000
   1192  C          7.3681   12.7620    3.3500   CA 1192  GRA        0.000000
   1193  C          9.8242    9.9260    3.3500   CA 1193  GRA        0.000000
   1194  C          8.5962   10.6350    3.3500   CA 1194  GRA        0.000000
   1195  C          8.5962   12.0530    3.3500   CA 1195  GRA        0.000000
   1196  C          9.8242   12.7620    3.3500   CA 1196  GRA        0.000000
   1197  C         12.2802    9.9260    3.3500   CA 1197  GRA        0.000000
   1198  C         11.0522   10.6350    3.3500   CA 1198  GRA        0.000000
   1199  C         11.0522   12.0530    3.3500   CA 1199  GRA        0.000000
   1200  C         12.2802   12.7620    3.3500   CA 1200  GRA        0.000000
   1201  C         14.7363    9.9260    3.3500   CA 1201  GRA        0.000000
   1202  C         13.5083   10.6350    3.3500   CA 1202  GRA        0.000000
   1203  C         13.5083   12.0530    3.3500   CA 1203  GRA        0.000000
   1204  C         14.7363   12.7620    3.3500   CA 1204  GRA        0.000000
   1205  C         17.1923    9.9260    3.3500   CA 1205  GRA        0.000000
   1206  C         15.9643   10.6350    3.3500   CA 1206  GRA        0.000000
   1207  C         15.9643   12.0530    3.3500   CA 1207  GRA        0.000000
   1208  C         17.1923   12.7620    3.3500   CA 1208  GRA        0.000000
   1209  C         19.6484    9.9260    3.3500   CA 1209  GRA        0.000000
   1210  C         18.4204   10.6350    3.3500   CA 1210  GRA        0.000000
   1211  C         18.4204   12.0530    3.3500   CA 1211  GRA        0.000000
   1212  C         19.6484   12.7620    3.3500   CA 1212  GRA        0.000000
   1213  C         22.1044    9.9260    3.3500   CA 1213  GRA        0.000000
   1214  C         20.8764   10.6350    3.3500   CA 1214  GRA        0.000000
   1215  C         20.8764   12.0530    3.3500   CA 1215  GRA        0.000000
   1216  C         22.1044   12.7620    3.3500   CA 1216  GRA        0.000000
   1217  C         24.5605    9.9260    3.3500   CA 1217  GRA        0.000000
   1218  C         23.3325   10.6350    3.3500   CA 1218  GRA        0.000000
   1219  C         23.3325   12.0530    3.3500   CA 1219  GRA        0.000000
   1220  C         24.5605   12.7620    3.3500   CA 1220  GRA        0.000000
   1221  C         27.0165    9.9260    3.3500   CA 1221  GRA        0.000000
   1222  C         25.7885   10.6350    3.3500   CA 1222  GRA        0.000000
   1223  C         25.7885   12.0530    3.3500   CA 1223  GRA        0.000000
   1224  C         27.0165   12.7620    3.3500   CA 1224  GRA        0.000000
   1225  C         29.4726    9.9260    3.3500   CA 1225  GRA        0.000000
   1226  C         28.2446   10.6350    3.3500   CA 1226  GRA        0.000000
   1227  C         28.2446   12.0530    3.3500   CA 1227  GRA        0.000000
   1228  C         29.4726   12.7620    3.3500   CA 1228  GRA        0.000000
   1229  C         31.9286    9.9260    3.3500   CA 1229  GRA        0.000000
   1230  C         30.7006   10.6350    3.3500   CA 1230  GRA        0.000000
   1231  C         30.7006   12.0530    3.3500   CA 1231  GRA        0.000000
   1232  C         31.9286   12.7620    3.3500   CA 1232  GRA        0.000000
   1233  C         34.3847    9.9260    3.3500   CA 1233  GRA        0.000000
   1234  C         33.1566   10.6350    3.3500   CA 1234  GRA        0.000000
   1235  C         33.1566   12.0530    3.3500   CA 1235  GRA        0.000000
   1236  C         34.3847   12.7620    3.3500   CA 1236  GRA        0.000000
   1237  C         36.8407    9.9260    3.3500   CA 1237  GRA        0.000000
   1238  C         35.6127   10.6350    3.3500   CA 1238  GRA        0.000000
   1239  C         35.6127   12.0530    3.3500   CA 1239  GRA        0.000000
   1240  C         36.8407   12.7620    3.3500   CA 1240  GRA        0.000000
   1241  C         39.2968    9.9260    3.3500   CA 1241  GRA        0.000000
   1242  C         38.0687   10.6350    3.3500   CA 1242  GRA        0.000000
   1243  C         38.0687   12.0530    3.3500   CA 1243  GRA        0.000000
   1244  C         39.2968   12.7620    3.3500   CA 1244  GRA        0.000000
   1245  C         41.7528    9.9260    3.3500   CA 1245  GRA        0.000000
   1246  C         40.5248   10.6350    3.3500   CA 1246  GRA        0.000000
   1247  C         40.5248   12.0530    3.3500   CA 1247  GRA        0.000000
   1248  C         41.7528   12.7620    3.3500   CA 1248  GRA        0.000000
   1249  C         44.2089    9.9260    3.3500   CA 1249  GRA        0.000000
   1250  C         42.9808   10.6350    3.3500   CA 1250  GRA        0.000000
   1251  C         42.9808   12.0530    3.3500   CA 1251  GRA        0.000000
   1252  C         44.2089   12.7620    3.3500   CA 1252  GRA        0.000000
   1253  C         46.6649    9.9260    3.3500   CA 1253  GRA        0.000000
   1254  C         45.4369   10.6350    3.3500   CA 1254  GRA        0.000000
   1255  C         45.4369   12.0530    3.3500   CA 1255  GRA        0.000000
   1256  C         46.6649   12.7620    3.3500   CA 1256  GRA        0.000000
   1257  C         49.1210    9.9260    3.3500   CA 1257  GRA        0.000000
   1258  C         47.8929   10.6350    3.3500   CA 1258  GRA        0.000000
   1259  C         47.8929   12.0530    3.3500   CA 1259  GRA        0.000000
   1260  C         49.1210   12.7620    3.3500   CA 1260  GRA        0.000000
   1261  C          0.0000   14.1800    3.3500   CA 1261  GRA        0.000000
   1262  C         -1.2280   14.8890    3.3500   CA 1262  GRA        0.000000
   1263  C         -1.2280   16.3070    3.3500   CA 1263  GRA        0.000000
   1264  C          0.0000   17.0160    3.3500   CA 1264  GRA        0.000000
   1265  C          2.4560   14.1800    3.3500   CA 1265  GRA        0.000000
   1266  C          1.2280   14.8890    3.3500   CA 1266  GRA        0.000000
   1267  C          1.2280   16.3070    3.3500   CA 1267  GRA        0.000000
   1268  C          2.4560   17.0160    3.3500   CA 1268  GRA        0.000000
   1269  C          4.9121   14.1800    3.3500   CA 1269  GRA        0.000000
   1270  C          3.6841   14.8890    3.3500   CA 1270  GRA        0.000000
   1271  C          3.6841   16.3070    3.3500   CA 1271  GRA        0.000000
   1272  C          4.9121   17.0160    3.3500   CA 1272  GRA        0.000000
   1273  C          7.3681   14.1800    3.3500   CA 1273  GRA        0.000000
   1274  C          6.1401   14.8890    3.3500   CA 1274  GRA        0.000000
   1275  C          6.1401   16.3070    3.3500   CA 1275  GRA        0.000000
   1276  C          7.3681   17.0160    3.3500   CA 1276  GRA        0.000000
   1277  C          9.8242   14.1800    3.3500   CA 1277  GRA        0.000000
   1278  C          8.5962   14.8890    3.3500   CA 1278  GRA        0.000000
   1279  C          8.5962   16.3070    3.3500   CA 1279  GRA        0.000000
   1280  C          9.8242   17.0160    3.3500   CA 1280  GRA        0.000000
   1281  C         12.2802   14.1800    3.3500   CA 1281  GRA        0.000000
   1282  C         11.0522   14.8890    3.3500   CA 1282  GRA        0.000000
   1283  C         11.0522   16.3070    3.3500   CA 1283  GRA        0.000000
   1284  C         12.2802   17.0160    3.3500   CA 1284  GRA        0.000000
   1285  C         14.7363   14.1800    3.3500   CA 1285  GRA        0.000000
   1286  C         13.5083   14.8890    3.3500   CA 1286  GRA        0.000000
   1287  C         13.5083   16.3070    3.3500   CA 1287  GRA        0.000000
   1288  C         14.7363   17.0160    3.3500   CA 1288  GRA        0.000000
   1289  C         17.1923   14.1800    3.3500   CA 1289  GRA        0.000000
   1290  C         15.9643   14.8890    3.3500   CA 1290  GRA        0.000000
   1291  C         15.9643   16.3070    3.3500   CA 1291  GRA        0.000000
   1292  C         17.1923   17.0160    3.3500   CA 1292  GRA        0.000000
   1293  C         19.6484   14.1800    3.3500   CA 1293  GRA        0.000000
   1294  C         18.4204   14.8890    3.3500   CA 1294  GRA        0.000000
   1295  C         18.4204   16.3070    3.3500   CA 1295  GRA        0.000000
   1296  C         19.6484   17.0160    3.3500   CA 1296  GRA        0.000000
   1297  C         22.1044   14.1800    3.3500   CA 1297  GRA        0.000000
   1298  C         20.8764   14.8890    3.3500   CA 1298  GRA        0.000000
   1299  C         20.8764   16.3070    3.3500   CA 1299  GRA        0.000000
   1300  C         22.1044   17.0160    3.3500   CA 1300  GRA        0.000000
   1301  C         24.5605   14.1800    3.3500   CA 1301  GRA        0.000000
   1302  C         23.3325   14.8890    3.3500   CA 1302  GRA        0.000000
   1303  C         23.3325   16.3070    3.3500   CA 1303  GRA        0.000000
   1304  C         24.5605   17.0160    3.3500   CA 1304  GRA        0.000000
   1305  C         27.0165   14.1800    3.3500   CA 1305  GRA        0.000000
   1306  C         25.7885   14.8890    3.3500   CA 1306  GRA        0.000000
   1307  C         25.7885   16.3070    3.3500   CA 1307  GRA        0.000000
   1308  C         27.0165   17.0160    3.3500   CA 1308  GRA        0.000000
   1309  C         29.4726   14.1800    3.3500   CA 1309  GRA        0.000000
   1310  C         28.2446   14.8890    3.3500   CA 1310  GRA        0.000000
   1311  C         28.2446   16.3070    3.3500   CA 1311  GRA        0.000000
   1312  C         29.4726   17.0160    3.3500   CA 1312  GRA        0.000000
   1313  C         31.9286   14.1800    3.3500   CA 1313  GRA        0.000000
   1314  C         30.7006   14.8890    3.3500   CA 1314  GRA        0.000000
   1315  C         30.7006   16.3070    3.3500   CA 1315  GRA        0.000000
   1316  C         31.9286   17.0160    3.3500   CA 1316  GRA        0.000000
   1317  C         34.3847   14.1800    3.3500   CA 1317  GRA        0.000000
   1318  C         33.1566   14.8890    3.3500   CA 1318  GRA        0.000000
   1319  C         33.1566   16.3070    3.3500   CA 1319  GRA        0.000000
   1320  C         34.3847   17.0160    3.3500   CA 1320  GRA        0.000000
   1321  C         36.8407   14.1800    3.3500   CA 1321  GRA        0.000000
   1322  C         35.6127   14.8890    3.3500   CA 1322  GRA        0.000000
   1323  C         35.6127   16.3070    3.3500   CA 1323  GRA        0.000000
   1324  C         36.8407   17.0160    3.3500   CA 1324  GRA        0.000000
   1325  C         39.2968   14.1800    3.3500   CA 1325  GRA        0.000000
   1326  C         38.0687   14.8890    3.3500   CA 1326  GRA        0.000000
   1327  C         38.0687   16.3070    3.3500   CA 1327  GRA        0.000000
   1328  C         39.2968   17.0160    3.3500   CA 1328  GRA        0.000000
   1329  C         41.7528   14.1800    3.3500   CA 1329  GRA        0.000000
   1330  C         40.5248   14.8890    3.3500   CA 1330  GRA        0.000000
   1331  C         40.5248   16.3070    3.3500   CA 1331  GRA        0.000000
   1332  C         41.7528   17.0160    3.3500   CA 1332  GRA        0.000000
   1333  C         44.2089   14.1800    3.3500   CA 1333  GRA        0.000000
   1334  C         42.9808   14.8890    3.3500   CA 1334  GRA        0.000000
   1335  C         42.9808   16.3070    3.3500   CA 1335  GRA        0.000000
   1336  C         44.2089   17.0160    3.3500   CA 1336  GRA        0.000000
   1337  C         46.6649   14.1800    3.3500   CA 1337  GRA        0.000000
   1338  C         45.4369   14.8890    3.3500   CA 1338  GRA        0.000000
   1339  C         45.4369   16.3070    3.3500   CA 1339  GRA        0.000000
   1340  C         46.6649   17.0160    3.3500   CA 1340  GRA        0.000000
   1341  C         49.1210   14.1800    3.3500   CA 1341  GRA        0.000000
   1342  C         47.8929   14.8890    3.3500   CA 1342  GRA        0.000000
   1343  C         47.8929   16.3070    3.3500   CA 1343  GRA        0.000000
   1344  C         49.1210   17.0160    3.3500   CA 1344  GRA        0.000000
   1345  C          0.0000   18.4340    3.3500   CA 1345  GRA        0.000000
   1346  C         -1.2280   19.1430    3.3500   CA 1346  GRA        0.000000
   1347  C         -1.2280   20.5610    3.3500   CA 1347  GRA        0.000000
   1348  C          0.0000   21.2700    3.3500   CA 1348  GRA        0.000000
   1349  C          2.4560   18.4340    3.3500   CA 1349  GRA        0.000000
   1350  C          1.2280   19.1430    3.3500   CA 1350  GRA        0.000000
   1351  C          1.2280   20.5610    3.3500   CA 1351  GRA        0.000000
   1352  C          2.4560   21.2700    3.3500   CA 1352  GRA        0.000000
   1353  C          4.9121   18.4340    3.3500   CA 1353  GRA        0.000000
   1354  C          3.6841   19.1430    3.3500   CA 1354  GRA        0.000000
   1355  C          3.6841   20.5610    3.3500   CA 1355  GRA        0.000000
   1356  C          4.9121   21.2700    3.3500   CA 1356  GRA        0.000000
   1357  C          7.3681   18.4340    3.3500   CA 1357  GRA        0.000000
   1358  C          6.1401   19.1430    3.3500   CA 1358  GRA        0.000000
   1359  C          6.1401   20.5610    3.3500   CA 1359  GRA        0.000000
   1360  C          7.3681   21.2700    3.3500   CA 1360  GRA        0.000000
   1361  C          9.8242   18.4340    3.3500   CA 1361  GRA        0.000000
   1362  C          8.5962   19.1430    3.3500   CA 1362  GRA        0.000000
   1363  C          8.5962   20.5610    3.3500   CA 1363  GRA        0.000000
   1364  C          9.8242   21.2700    3.3500   CA 1364  GRA        0.000000
   1365  C         12.2802   18.4340    3.3500   CA 1365  GRA        0.000000
   1366  C         11.0522   19.1430    3.3500   CA 1366  GRA        0.000000
   1367  C         11.0522   20.5610    3.3500   CA 1367  GRA        0.000000
   1368  C         12.2802   21.2700    3.3500   CA 1368  GRA        0.000000
   1369  C         14.7363   18.4340    3.3500   CA 1369  GRA        0.000000
   1370  C         13.5083   19.1430    3.3500   CA 1370  GRA        0.000000
   1371  C         13.5083   20.5610    3.3500   CA 1371  GRA        0.000000
   1372  C         14.7363   21.2700    3.3500   CA 1372  GRA        0.000000
   1373  C         17.1923   18.4340    3.3500   CA 1373  GRA        0.000000
   1374  C         15.9643   19.1430    3.3500   CA 1374  GRA        0.000000
   1375  C         15.9643   20.5610    3.3500   CA 1375  GRA        0.000000
   1376  C         17.1923   21.2700    3.3500   CA 1376  GRA        0.000000
   1377  C         19.6484   18.4340    3.3500   CA 1377  GRA        0.000000
   1378  C         18.4204   19.1430    3.3500   CA 1378  GRA        0.000000
   1379  C         18.4204   20.5610    3.3500   CA 1379  GRA        0.000000
   1380  C         19.6484   21.2700    3.3500   CA 1380  GRA        0.000000
   1381  C         22.1044   18.4340    3.3500   CA 1381  GRA        0.000000
   1382  C         20.8764   19.1430    3.3500   CA 1382  GRA        0.000000
   1383  C         20.8764   20.5610    3.3500   CA 1383  GRA        0.000000
   1384  C         22.1044   21.2700    3.3500   CA 1384  GRA        0.000000
   1385  C         24.5605   18.4340    3.3500   CA 1385  GRA        0.000000
   1386  C         23.3325   19.1430    3.3500   CA 1386  GRA        0.000000
   1387  C         23.3325   20.5610    3.3500   CA 1387  GRA        0.000000
   1388  C         24.5605   21.2700    3.3500   CA 1388  GRA        0.000000
   1389  C         27.0165   18.4340    3.3500   CA 1389  GRA        0.000000
   1390  C         25.7885   19.1430    3.3500   CA 1390  GRA        0.000000
   1391  C         25.7885   20.5610    3.3500   CA 1391  GRA        0.000000
   1392  C         27.0165   21.2700    3.3500   CA 1392  GRA        0.000000
   1393  C         29.4726   18.4340    3.3500   CA 1393  GRA        0.000000
   1394  C         28.2446   19.1430    3.3500   CA 1394  GRA        0.000000
   1395  C         28.2446   20.5610    3.3500   CA 1395  GRA        0.000000
   1396  C         29.4726   21.2700    3.3500   CA 1396  GRA        0.000000
   1397  C         31.9286   18.4340    3.3500   CA 1397  GRA        0.000000
   1398  C         30.7006   19.1430    3.3500   CA 1398  GRA        0.000000
   1399  C         30.7006   20.5610    3.3500   CA 1399  GRA        0.000000
   1400  C         31.9286   21.2700    3.3500   CA 1400  GRA        0.000000
   1401  C         34.3847   18.4340    3.3500   CA 1401  GRA        0.000000
   1402  C         33.1566   19.1430    3.3500   CA 1402  GRA        0.000000
   1403  C         33.1566   20.5610    3.3500   CA 1403  GRA        0.000000
   1404  C         34.3847   21.2700    3.3500   CA 1404  GRA        0.000000
   1405  C         36.8407   18.4340    3.3500   CA 1405  GRA        0.000000
   1406  C         35.6127   19.1430    3.3500   CA 1406  GRA        0.000000
   1407  C         35.6127   20.5610    3.3500   CA 1407  GRA        0.000000
   1408  C         36.8407   21.2700    3.3500   CA 1408  GRA        0.000000
   1409  C         39.2968   18.4340    3.3500   CA 1409  GRA        0.000000
   1410  C         38.0687   19.1430    3.3500   CA 1410  GRA        0.000000
   1411  C         38.0687   20.5610    3.3500   CA 1411  GRA        0.000000
   1412  C         39.2968   21.2700    3.3500   CA 1412  GRA        0.000000
   1413  C         41.7528   18.4340    3.3500   CA 1413  GRA        0.000000
   1414  C         40.5248   19.1430    3.3500   CA 1414  GRA        0.000000
   1415  C         40.5248   20.5610    3.3500   CA 1415  GRA        0.000000
   1416  C         41.7528   21.2700    3.3500   CA 1416  GRA        0.000000
   1417  C         44.2089   18.4340    3.3500   CA 1417  GRA        0.000000
   1418  C         42.9808   19.1430    3.3500   CA 1418  GRA        0.000000
   1419  C         42.9808   20.5610    3.3500   CA 1419  GRA        0.000000
   1420  C         44.2089   21.2700    3.3500   CA 1420  GRA        0.000000
   1421  C         46.6649   18.4340    3.3500   CA 1421  GRA        0.000000
   1422  C         45.4369   19.1430    3.3500   CA 1422  GRA        0.000000
   1423  C         45.4369   20.5610    3.3500   CA 1423  GRA        0.000000
   1424  C         46.6649   21.2700    3.3500   CA 1424  GRA        0.000000
   1425  C         49.1210   18.4340    3.3500   CA 1425  GRA        0.000000
   1426  C         47.8929   19.1430    3.3500   CA 1426  GRA        0.000000
   1427  C         47.8929   20.5610    3.3500   CA 1427  GRA        0.000000
   1428  C         49.1210   21.2700    3.3500   CA 1428  GRA        0.000000
   1429  C          0.0000   22.6880    3.3500   CA 1429  GRA        0.000000
   1430  C         -1.2280   23.3970    3.3500   CA 1430  GRA        0.000000
   1431  C         -1.2280   24.8150    3.3500   CA 1431  GRA        0.000000
   1432  C          0.0000   25.5240    3.3500   CA 1432  GRA        0.000000
   1433  C          2.4560   22.6880    3.3500   CA 1433  GRA        0.000000
   1434  C          1.2280   23.3970    3.3500   CA 1434  GRA        0.000000
   1435  C          1.2280   24.8150    3.3500   CA 1435  GRA        0.000000
   1436  C          2.4560   25.5240    3.3500   CA 1436  GRA        0.000000
   1437  C          4.9121   22.6880    3.3500   CA 1437  GRA        0.000000
   1438  C          3.6841   23.3970    3.3500   CA 1438  GRA        0.000000
   1439  C          3.6841   24.8150    3.3500   CA 1439  GRA        0.000000
   1440  C          4.9121   25.5240    3.3500   CA 1440  GRA        0.000000
   1441  C          7.3681   22.6880    3.3500   CA 1441  GRA        0.000000
   1442  C          6.1401   23.3970    3.3500   CA 1442  GRA        0.000000
   1443  C          6.1401   24.8150    3.3500   CA 1443  GRA        0.000000
   1444  C          7.3681   25.5240    3.3500   CA 1444  GRA        0.000000
   1445  C          9.8242   22.6880    3.3500   CA 1445  GRA        0.000000
   1446  C          8.5962   23.3970    3.3500   CA 1446  GRA        0.000000
   1447  C          8.5962   24.8150    3.3500   CA 1447  GRA        0.000000
   1448  C          9.8242   25.5240    3.3500   CA 1448  GRA        0.000000
   1449  C         12.2802   22.6880    3.3500   CA 1449  GRA        0.000000
   1450  C         11.0522   23.3970    3.3500   CA 1450  GRA        0.000000
   1451  C         11.0522   24.8150    3.3500   CA 1451  GRA        0.000000
   1452  C         12.2802   25.5240    3.3500   CA 1452  GRA        0.000000
   1453  C         14.7363   22.6880    3.3500   CA 1453  GRA        0.000000
   1454  C         13.5083   23.3970    3.3500   CA 1454  GRA        0.000000
   1455  C         13.5083   24.8150    3.3500   CA 1455  GRA        0.000000
   1456  C         14.7363   25.5240    3.3500   CA 1456  GRA        0.000000
   1457  C         17.1923   22.6880    3.3500   CA 1457  GRA        0.000000
   1458  C         15.9643   23.3970    3.3500   CA 1458  GRA        0.000000
   1459  C         15.9643   24.8150    3.3500   CA 1459  GRA        0.000000
   1460  C         17.1923   25.5240    3.3500   CA 1460  GRA        0.000000
   1461  C         19.6484   22.6880    3.3500   CA 1461  GRA        0.000000
   1462  C         18.4204   23.3970    3.3500   CA 1462  GRA        0.000000
   1463  C         18.4204   24.8150    3.3500   CA 1463  GRA        0.000000
   1464  C         19.6484   25.5240    3.3500   CA 1464  GRA        0.000000
   1465  C         22.1044   22.6880    3.3500   CA 1465  GRA        0.000000
   1466  C         20.8764   23.3970    3.3500   CA 1466  GRA        0.000000
   1467  C         20.8764   24.8150    3.3500   CA 1467  GRA        0.000000
   1468  C         22.1044   25.5240    3.3500   CA 1468  GRA        0.000000
   1469  C         24.5605   22.6880    3.3500   CA 1469  GRA        0.000000
   1470  C         23.3325   23.3970    3.3500   CA 1470  GRA        0.000000
   1471  C         23.3325   24.8150    3.3500   CA 1471  GRA        0.000000
   1472  C         24.5605   25.5240    3.3500   CA 1472  GRA        0.000000
   1473  C         27.0165   22.6880    3.3500   CA 1473  GRA        0.000000
   1474  C         25.7885   23.3970    3.3500   CA 1474  GRA        0.000000
   1475  C         25.7885   24.8150    3.3500   CA 1475  GRA        0.000000
   1476  C         27.0165   25.5240    3.3500   CA 1476  GRA        0.000000
   1477  C         29.4726   22.6880    3.3500   CA 1477  GRA        0.000000
   1478  C         28.2446   23.3970    3.3500   CA 1478  GRA        0.000000
   1479  C         28.2446   24.8150    3.3500   CA 1479  GRA        0.000000
   1480  C         29.4726   25.5240    3.3500   CA 1480  GRA        0.000000
   1481  C         31.9286   22.6880    3.3500   CA 1481  GRA        0.000000
   1482  C         30.7006   23.3970    3.3500   CA 1482  GRA        0.000000
   1483  C         30.7006   24.8150    3.3500   CA 1483  GRA        0.000000
   1484  C         31.9286   25.5240    3.3500   CA 1484  GRA        0.000000
   1485  C         34.3847   22.6880    3.3500   CA 1485  GRA        0.000000
   1486  C         33.1566   23.3970    3.3500   CA 1486  GRA        0.000000
   1487  C         33.1566   24.8150    3.3500   CA 1487  GRA        0.000000
   1488  C         34.3847   25.5240    3.3500   CA 1488  GRA        0.000000
   1489  C         36.8407   22.6880    3.3500   CA 1489  GRA        0.000000
   1490  C         35.6127   23.3970    3.3500   CA 1490  GRA        0.000000
   1491  C         35.6127   24.8150    3.3500   CA 1491  GRA        0.000000
   1492  C         36.8407   25.5240    3.3500   CA 1492  GRA        0.000000
   1493  C         39.2968   22.6880    3.3500   CA 1493  GRA        0.000000
   1494  C         38.0687   23.3970    3.3500   CA 1494  GRA        0.000000
   1495  C         38.0687   24.8150    3.3500   CA 1495  GRA        0.000000
   1496  C         39.2968   25.5240    3.3500   CA 1496  GRA        0.000000
   1497  C         41.7528   22.6880    3.3500   CA 1497  GRA        0.000000
   1498  C         40.5248   23.3970    3.3500   CA 1498  GRA        0.000000
   1499  C         40.5248   24.8150    3.3500   CA 1499  GRA        0.000000
   1500  C         41.7528   25.5240    3.3500   CA 1500  GRA        0.000000
   1501  C         44.2089   22.6880    3.3500   CA 1501  GRA        0.000000
   1502  C         42.9808   23.3970    3.3500   CA 1502  GRA        0.000000
   1503  C         42.9808   24.8150    3.3500   CA 1503  GRA        0.000000
   1504  C         44.2089   25.5240    3.3500   CA 1504  GRA        0.000000
   1505  C         46.6649   22.6880    3.3500   CA 1505  GRA        0.000000
   1506  C         45.4369   23.3970    3.3500   CA 1506  GRA        0.000000
   1507  C         45.4369   24.8150    3.3500   CA 1507  GRA        0.000000
   1508  C         46.6649   25.5240    3.3500   CA 1508  GRA        0.000000
   1509  C         49.1210   22.6880    3.3500   CA 1509  GRA        0.000000
   1510  C         47.8929   23.3970    3.3500   CA 1510  GRA        0.000000
   1511  C         47.8929   24.8150    3.3500   CA 1511  GRA        0.000000
   1512  C         49.1210   25.5240    3.3500   CA 1512  GRA        0.000000
   1513  C          0.0000   26.9420    3.3500   CA 1513  GRA        0.000000
   1514  C         -1.2280   27.6510    3.3500   CA 1514  GRA        0.000000
   1515  C         -1.2280   29.0690    3.3500   CA 1515  GRA        0.000000
   1516  C          0.0000   29.7780    3.3500   CA 1516  GRA        0.000000
   1517  C          2.4560   26.9420    3.3500   CA 1517  GRA        0.000000
   1518  C          1.2280   27.6510    3.3500   CA 1518  GRA        0.000000
   1519  C          1.2280   29.0690    3.3500   CA 1519  GRA        0.000000
   1520  C          2.4560   29.7780    3.3500   CA 1520  GRA        0.000000
   1521  C          4.9121   26.9420    3.3500   CA 1521  GRA        0.000000
   1522  C          3.6841   27.6510    3.3500   CA 1522  GRA        0.000000
   1523  C          3.6841   29.0690    3.3500   CA 1523  GRA        0.000000
   1524  C          4.9121   29.7780    3.3500   CA 1524  GRA        0.000000
   1525  C          7.3681   26.9420    3.3500   CA 1525  GRA        0.000000
   1526  C          6.1401   27.6510    3.3500   CA 1526  GRA        0.000000
   1527  C          6.1401   29.0690    3.3500   CA 1527  GRA        0.000000
   1528  C          7.3681   29.7780    3.3500   CA 1528  GRA        0.000000
   1529  C          9.8242   26.9420    3.3500   CA 1529  GRA        0.000000
   1530  C          8.5962   27.6510    3.3500   CA 1530  GRA        0.000000
   1531  C          8.5962   29.0690    3.3500   CA 1531  GRA        0.000000
   1532  C          9.8242   29.7780    3.3500   CA 1532  GRA        0.000000
   1533  C         12.2802   26.9420    3.3500   CA 1533  GRA        0.000000
   1534  C         11.0522   27.6510    3.3500   CA 1534  GRA        0.000000
   1535  C         11.0522   29.0690    3.3500   CA 1535  GRA        0.000000
   1536  C         12.2802   29.7780    3.3500   CA 1536  GRA        0.000000
   1537  C         14.7363   26.9420    3.3500   CA 1537  GRA        0.000000
   1538  C         13.5083   27.6510    3.3500   CA 1538  GRA        0.000000
   1539  C         13.5083   29.0690    3.3500   CA 1539  GRA        0.000000
   1540  C         14.7363   29.7780    3.3500   CA 1540  GRA        0.000000
   1541  C         17.1923   26.9420    3.3500   CA 1541  GRA        0.000000
   1542  C         15.9643   27.6510    3.3500   CA 1542  GRA        0.000000
   1543  C         15.9643   29.0690    3.3500   CA 1543  GRA        0.000000
   1544  C         17.1923   29.7780    3.3500   CA 1544  GRA        0.000000
   1545  C         19.6484   26.9420    3.3500   CA 1545  GRA        0.000000
   1546  C         18.4204   27.6510    3.3500   CA 1546  GRA        0.000000
   1547  C         18.4204   29.0690    3.3500   CA 1547  GRA        0.000000
   1548  C         19.6484   29.7780    3.3500   CA 1548  GRA        0.000000
   1549  C         22.1044   26.9420    3.3500   CA 1549  GRA        0.000000
   1550  C         20.8764   27.6510    3.3500   CA 1550  GRA        0.000000
   1551  C         20.8764   29.0690    3.3500   CA 1551  GRA        0.000000
   1552  C         22.1044   29.7780    3.3500   CA 1552  GRA        0.000000
   1553  C         24.5605   26.9420    3.3500   CA 1553  GRA        0.000000
   1554  C         23.3325   27.6510    3.3500   CA 1554  GRA        0.000000
   1555  C         23.3325   29.0690    3.3500   CA 1555  GRA        0.000000
   1556  C         24.5605   29.7780    3.3500   CA 1556  GRA        0.000000
   1557  C         27.0165   26.9420    3.3500   CA 1557  GRA        0.000000
   1558  C         25.7885   27.6510    3.3500   CA 1558  GRA        0.000000
   1559  C         25.7885   29.0690    3.3500   CA 1559  GRA        0.000000
   1560  C         27.0165   29.7780    3.3500   CA 1560  GRA        0.000000
   1561  C         29.4726   26.9420    3.3500   CA 1561  GRA        0.000000
   1562  C         28.2446   27.6510    3.3500   CA 1562  GRA        0.000000
   1563  C         28.2446   29.0690    3.3500   CA 1563  GRA        0.000000
   1564  C         29.4726   29.7780    3.3500   CA 1564  GRA        0.000000
   1565  C         31.9286   26.9420    3.3500   CA 1565  GRA        0.000000
   1566  C         30.7006   27.6510    3.3500   CA 1566  GRA        0.000000
   1567  C         30.7006   29.0690    3.3500   CA 1567  GRA        0.000000
   1568  C         31.9286   29.7780    3.3500   CA 1568  GRA        0.000000
   1569  C         34.3847   26.9420    3.3500   CA 1569  GRA        0.000000
   1570  C         33.1566   27.6510    3.3500   CA 1570  GRA        0.000000
   1571  C         33.1566   29.0690    3.3500   CA 1571  GRA        0.000000
   1572  C         34.3847   29.7780    3.3500   CA 1572  GRA        0.000000
   1573  C         36.8407   26.9420    3.3500   CA 1573  GRA        0.000000
   1574  C         35.6127   27.6510    3.3500   CA 1574  GRA        0.000000
   1575  C         35.6127   29.0690    3.3500   CA 1575  GRA        0.000000
   1576  C         36.8407   29.7780    3.3500   CA 1576  GRA        0.000000
   1577  C         39.2968   26.9420    3.3500   CA 1577  GRA        0.000000
   1578  C         38.0687   27.6510    3.3500   CA 1578  GRA        0.000000
   1579  C         38.0687   29.0690    3.3500   CA 1579  GRA        0.000000
   1580  C         39.2968   29.7780    3.3500   CA 1580  GRA        0.000000
   1581  C         41.7528   26.9420    3.3500   CA 1581  GRA        0.000000
   1582  C         40.5248   27.6510    3.3500   CA 1582  GRA        0.000000
   1583  C         40.5248   29.0690    3.3500   CA 1583  GRA        0.000000
   1584  C         41.7528   29.7780    3.3500   CA 1584  GRA        0.000000
   1585  C         44.2089   26.9420    3.3500   CA 1585  GRA        0.000000
   1586  C         42.9808   27.6510    3.3500   CA 1586  GRA        0.000000
   1587  C         42.9808   29.0690    3.3500   CA 1587  GRA        0.000000
   1588  C         44.2089   29.7780    3.3500   CA 1588  GRA        0.000000
   1589  C         46.6649   26.9420    3.3500   CA 1589  GRA        0.000000
   1590  C         45.4369   27.6510    3.3500   CA 1590  GRA        0.000000
   1591  C         45.4369   29.0690    3.3500   CA 1591  GRA        0.000000
   1592  C         46.6649   29.7780    3.3500   CA 1592  GRA        0.000000
   1593  C         49.1210   26.9420    3.3500   CA 1593  GRA        0.000000
   1594  C         47.8929   27.6510    3.3500   CA 1594  GRA        0.000000
   1595  C         47.8929   29.0690    3.3500   CA 1595  GRA        0.000000
   1596  C         49.1210   29.7780    3.3500   CA 1596  GRA        0.000000
   1597  C          0.0000   31.1960    3.3500   CA 1597  GRA        0.000000
   1598  C         -1.2280   31.9050    3.3500   CA 1598  GRA        0.000000
   1599  C         -1.2280   33.3230    3.3500   CA 1599  GRA        0.000000
   1600  C          0.0000   34.0320    3.3500   CA 1600  GRA        0.000000
   1601  C          2.4560   31.1960    3.3500   CA 1601  GRA        0.000000
   1602  C          1.2280   31.9050    3.3500   CA 1602  GRA        0.000000
   1603  C          1.2280   33.3230    3.3500   CA 1603  GRA        0.000000
   1604  C          2.4560   34.0320    3.3500   CA 1604  GRA        0.000000
   1605  C          4.9121   31.1960    3.3500   CA 1605  GRA        0.000000
   1606  C          3.6841   31.9050    3.3500   CA 1606  GRA        0.000000
   1607  C          3.6841   33.3230    3.3500   CA 1607  GRA        0.000000
   1608  C          4.9121   34.0320    3.3500   CA 1608  GRA        0.000000
   1609  C          7.3681   31.1960    3.3500   CA 1609  GRA        0.000000
   1610  C          6.1401   31.9050    3.3500   CA 1610  GRA        0.000000
   1611  C          6.1401   33.3230    3.3500   CA 1611  GRA        0.000000
   1612  C          7.3681   34.0320    3.3500   CA 1612  GRA        0.000000
   1613  C          9.8242   31.1960    3.3500   CA 1613  GRA        0.000000
   1614  C          8.5962   31.9050    3.3500   CA 1614  GRA        0.000000
   1615  C          8.5962   33.3230    3.3500   CA 1615  GRA        0.000000
   1616  C          9.8242   34.0320    3.3500   CA 1616  GRA        0.000000
   1617  C         12.2802   31.1960    3.3500   CA 1617  GRA        0.000000
   1618  C         11.0522   31.9050    3.3500   CA 1618  GRA        0.000000
   1619  C         11.0522   33.3230    3.3500   CA 1619  GRA        0.000000
   1620  C         12.2802   34.0320    3.3500   CA 1620  GRA        0.000000
   1621  C         14.7363   31.1960    3.3500   CA 1621  GRA        0.000000
   1622  C         13.5083   31.9050    3.3500   CA 1622  GRA        0.000000
   1623  C         13.5083   33.3230    3.3500   CA 1623  GRA        0.000000
   1624  C         14.7363   34.0320    3.3500   CA 1624  GRA        0.000000
   1625  C         17.1923   31.1960    3.3500   CA 1625  GRA        0.000000
   1626  C         15.9643   31.9050    3.3500   CA 1626  GRA        0.000000
   1627  C         15.9643   33.3230    3.3500   CA 1627  GRA        0.000000
   1628  C         17.1923   34.0320    3.3500   CA 1628  GRA        0.000000
   1629  C         19.6484   31.1960    3.3500   CA 1629  GRA        0.000000
   1630  C         18.4204   31.9050    3.3500   CA 1630  GRA        0.000000
   1631  C         18.4204   33.3230    3.3500   CA 1631  GRA        0.000000
   1632  C         19.6484   34.0320    3.3500   CA 1632  GRA        0.000000
   1633  C         22.1044   31.1960    3.3500   CA 1633  GRA        0.000000
   1634  C         20.8764   31.9050    3.3500   CA 1634  GRA        0.000000
   1635  C         20.8764   33.3230    3.3500   CA 1635  GRA        0.000000
   1636  C         22.1044   34.0320    3.3500   CA 1636  GRA        0.000000
   1637  C         24.5605   31.1960    3.3500   CA 1637  GRA        0.000000
   1638  C         23.3325   31.9050    3.3500   CA 1638  GRA        0.000000
   1639  C         23.3325   33.3230    3.3500   CA 1639  GRA        0.000000
   1640  C         24.5605   34.0320    3.3500   CA 1640  GRA        0.000000
   1641  C         27.0165   31.1960    3.3500   CA 1641  GRA        0.000000
   1642  C         25.7885   31.9050    3.3500   CA 1642  GRA        0.000000
   1643  C         25.7885   33.3230    3.3500   CA 1643  GRA        0.000000
   1644  C         27.0165   34.0320    3.3500   CA 1644  GRA        0.000000
   1645  C         29.4726   31.1960    3.3500   CA 1645  GRA        0.000000
   1646  C         28.2446   31.9050    3.3500   CA 1646  GRA        0.000000
   1647  C         28.2446   33.3230    3.3500   CA 1647  GRA        0.000000
   1648  C         29.4726   34.0320    3.3500   CA 1648  GRA        0.000000
   1649  C         31.9286   31.1960    3.3500   CA 1649  GRA        0.000000
   1650  C         30.7006   31.9050    3.3500   CA 1650  GRA        0.000000
   1651  C         30.7006   33.3230    3.3500   CA 1651  GRA        0.000000
   1652  C         31.9286   34.0320    3.3500   CA 1652  GRA        0.000000
   1653  C         34.3847   31.1960    3.3500   CA 1653  GRA        0.000000
   1654  C         33.1566   31.9050    3.3500   CA 1654  GRA        0.000000
   1655  C         33.1566   33.3230    3.3500   CA 1655  GRA        0.000000
   1656  C         34.3847   34.0320    3.3500   CA 1656  GRA        0.000000
   1657  C         36.8407   31.1960    3.3500   CA 1657  GRA        0.000000
   1658  C         35.6127   31.9050    3.3500   CA 1658  GRA        0.000000
   1659  C         35.6127   33.3230    3.3500   CA 1659  GRA        0.000000
   1660  C         36.8407   34.0320    3.3500   CA 1660  GRA        0.000000
   1661  C         39.2968   31.1960    3.3500   CA 1661  GRA        0.000000
   1662  C         38.0687   31.9050    3.3500   CA 1662  GRA        0.000000
   1663  C         38.0687   33.3230    3.3500   CA 1663  GRA        0.000000
   1664  C         39.2968   34.0320    3.3500   CA 1664  GRA        0.000000
   1665  C         41.7528   31.1960    3.3500   CA 1665  GRA        0.000000
   1666  C         40.5248   31.9050    3.3500   CA 1666  GRA        0.000000
   1667  C         40.5248   33.3230    3.3500   CA 1667  GRA        0.000000
   1668  C         41.7528   34.0320    3.3500   CA 1668  GRA        0.000000
   1669  C         44.2089   31.1960    3.3500   CA 1669  GRA        0.000000
   1670  C         42.9808   31.9050    3.3500   CA 1670  GRA        0.000000
   1671  C         42.9808   33.3230    3.3500   CA 1671  GRA        0.000000
   1672  C         44.2089   34.0320    3.3500   CA 1672  GRA        0.000000
   1673  C         46.6649   31.1960    3.3500   CA 1673  GRA        0.000000
   1674  C         45.4369   31.9050    3.3500   CA 1674  GRA        0.000000
   1675  C         45.4369   33.3230    3.3500   CA 1675  GRA        0.000000
   1676  C         46.6649   34.0320    3.3500   CA 1676  GRA        0.000000
   1677  C         49.1210   31.1960    3.3500   CA 1677  GRA        0.000000
   1678  C         47.8929   31.9050    3.3500   CA 1678  GRA        0.000000
   1679  C         47.8929   33.3230    3.3500   CA 1679  GRA        0.000000
   1680  C         49.1210   34.0320    3.3500   CA 1680  GRA        0.000000
   1681  C          0.0000   35.4500    3.3500   CA 1681  GRA        0.000000
   1682  C         -1.2280   36.1590    3.3500   CA 1682  GRA        0.000000
   1683  C         -1.2280   37.5770    3.3500   CA 1683  GRA        0.000000
   1684  C          0.0000   38.2860    3.3500   CA 1684  GRA        0.000000
   1685  C          2.4560   35.4500    3.3500   CA 1685  GRA        0.000000
   1686  C          1.2280   36.1590    3.3500   CA 1686  GRA        0.000000
   1687  C          1.2280   37.5770    3.3500   CA 1687  GRA        0.000000
   1688  C          2.4560   38.2860    3.3500   CA 1688  GRA        0.000000
   1689  C          4.9121   35.4500    3.3500   CA 1689  GRA        0.000000
   1690  C          3.6841   36.1590    3.3500   CA 1690  GRA        0.000000
   1691  C          3.6841   37.5770    3.3500   CA 1691  GRA        0.000000
   1692  C          4.9121   38.2860    3.3500   CA 1692  GRA        0.000000
   1693  C          7.3681   35.4500    3.3500   CA 1693  GRA        0.000000
   1694  C          6.1401   36.1590    3.3500   CA 1694  GRA        0.000000
   1695  C          6.1401   37.5770    3.3500   CA 1695  GRA        0.000000
   1696  C          7.3681   38.2860    3.3500   CA 1696  GRA        0.000000
   1697  C          9.8242   35.4500    3.3500   CA 1697  GRA        0.000000
   1698  C          8.5962   36.1590    3.3500   CA 1698  GRA        0.000000
   1699  C          8.5962   37.5770    3.3500   CA 1699  GRA        0.000000
   1700  C          9.8242   38.2860    3.3500   CA 1700  GRA        0.000000
   1701  C         12.2802   35.4500    3.3500   CA 1701  GRA        0.000000
   1702  C         11.0522   36.1590    3.3500   CA 1702  GRA        0.000000
   1703  C         11.0522   37.5770    3.3500   CA 1703  GRA        0.000000
   1704  C         12.2802   38.2860    3.3500   CA 1704  GRA        0.000000
   1705  C         14.7363   35.4500    3.3500   CA 1705  GRA        0.000000
   1706  C         13.5083   36.1590    3.3500   CA 1706  GRA        0.000000
   1707  C         13.5083   37.5770    3.3500   CA 1707  GRA        0.000000
   1708  C         14.7363   38.2860    3.3500   CA 1708  GRA        0.000000
   1709  C         17.1923   35.4500    3.3500   CA 1709  GRA        0.000000
   1710  C         15.9643   36.1590    3.3500   CA 1710  GRA        0.000000
   1711  C         15.9643   37.5770    3.3500   CA 1711  GRA        0.000000
   1712  C         17.1923   38.2860    3.3500   CA 1712  GRA        0.000000
   1713  C         19.6484   35.4500    3.3500   CA 1713  GRA        0.000000
   1714  C         18.4204   36.1590    3.3500   CA 1714  GRA        0.000000
   1715  C         18.4204   37.5770    3.3500   CA 1715  GRA        0.000000
   1716  C         19.6484   38.2860    3.3500   CA 1716  GRA        0.000000
   1717  C         22.1044   35.4500    3.3500   CA 1717  GRA        0.000000
   1718  C         20.8764   36.1590    3.3500   CA 1718  GRA        0.000000
   1719  C         20.8764   37.5770    3.3500   CA 1719  GRA        0.000000
   1720  C         22.1044   38.2860    3.3500   CA 1720  GRA        0.000000
   1721  C         24.5605   35.4500    3.3500   CA 1721  GRA        0.000000
   1722  C         23.3325   36.1590    3.3500   CA 1722  GRA        0.000000
   1723  C         23.3325   37.5770    3.3500   CA 1723  GRA        0.000000
   1724  C         24.5605   38.2860    3.3500   CA 1724  GRA        0.000000
   1725  C         27.0165   35.4500    3.3500   CA 1725  GRA        0.000000
   1726  C         25.7885   36.1590    3.3500   CA 1726  GRA        0.000000
   1727  C         25.7885   37.5770    3.3500   CA 1727  GRA        0.000000
   1728  C         27.0165   38.2860    3.3500   CA 1728  GRA        0.000000
   1729  C         29.4726   35.4500    3.3500   CA 1729  GRA        0.000000
   1730  C         28.2446   36.1590    3.3500   CA 1730  GRA        0.000000
   1731  C         28.2446   37.5770    3.3500   CA 1731  GRA        0.000000
   1732  C         29.4726   38.2860    3.3500   CA 1732  GRA        0.000000
   1733  C         31.9286   35.4500    3.3500   CA 1733  GRA        0.000000
   1734  C         30.7006   36.1590    3.3500   CA 1734  GRA        0.000000
   1735  C         30.7006   37.5770    3.3500   CA 1735  GRA        0.000000
   1736  C         31.9286   38.2860    3.3500   CA 1736  GRA        0.000000
   1737  C         34.3847   35.4500    3.3500   CA 1737  GRA        0.000000
   1738  C         33.1566   36.1590    3.3500   CA 1738  GRA        0.000000
   1739  C         33.1566   37.5770    3.3500   CA 1739  GRA        0.000000
   1740  C         34.3847   38.2860    3.3500   CA 1740  GRA        0.000000
   1741  C         36.8407   35.4500    3.3500   CA 1741  GRA        0.000000
   1742  C         35.6127   36.1590    3.3500   CA 1742  GRA        0.000000
   1743  C         35.6127   37.5770    3.3500   CA 1743  GRA        0.000000
   1744  C         36.8407   38.2860    3.3500   CA 1744  GRA        0.000000
   1745  C         39.2968   35.4500    3.3500   CA 1745  GRA        0.000000
   1746  C         38.0687   36.1590    3.3500   CA 1746  GRA        0.000000
   1747  C         38.0687   37.5770    3.3500   CA 1747  GRA        0.000000
   1748  C         39.2968   38.2860    3.3500   CA 1748  GRA        0.000000
   1749  C         41.7528   35.4500    3.3500   CA 1749  GRA        0.000000
   1750  C         40.5248   36.1590    3.3500   CA 1750  GRA        0.000000
   1751  C         40.5248   37.5770    3.3500   CA 1751  GRA        0.000000
   1752  C         41.7528   38.2860    3.3500   CA 1752  GRA        0.000000
   1753  C         44.2089   35.4500    3.3500   CA 1753  GRA        0.000000
   1754  C         42.9808   36.1590    3.3500   CA 1754  GRA        0.000000
   1755  C         42.9808   37.5770    3.3500   CA 1755  GRA        0.000000
   1756  C         44.2089   38.2860    3.3500   CA 1756  GRA        0.000000
   1757  C         46.6649   35.4500    3.3500   CA 1757  GRA        0.000000
   1758  C         45.4369   36.1590    3.3500   CA 1758  GRA        0.000000
   1759  C         45.4369   37.5770    3.3500   CA 1759  GRA        0.000000
   1760  C         46.6649   38.2860    3.3500   CA 1760  GRA        0.000000
   1761  C         49.1210   35.4500    3.3500   CA 1761  GRA        0.000000
   1762  C         47.8929   36.1590    3.3500   CA 1762  GRA        0.000000
   1763  C         47.8929   37.5770    3.3500   CA 1763  GRA        0.000000
   1764  C         49.1210   38.2860    3.3500   CA 1764  GRA        0.000000
   1765  C          0.0000   39.7040    3.3500   CA 1765  GRA        0.000000
   1766  C         -1.2280   40.4130    3.3500   CA 1766  GRA        0.000000
   1767  C         -1.2280   41.8310    3.3500   CA 1767  GRA        0.000000
   1768  C          0.0000   42.5400    3.3500   CA 1768  GRA        0.000000
   1769  C          2.4560   39.7040    3.3500   CA 1769  GRA        0.000000
   1770  C          1.2280   40.4130    3.3500   CA 1770  GRA        0.000000
   1771  C          1.2280   41.8310    3.3500   CA 1771  GRA        0.000000
   1772  C          2.4560   42.5400    3.3500   CA 1772  GRA        0.000000
   1773  C          4.9121   39.7040    3.3500   CA 1773  GRA        0.000000
   1774  C          3.6841   40.4130    3.3500   CA 1774  GRA        0.000000
   1775  C          3.6841   41.8310    3.3500   CA 1775  GRA        0.000000
   1776  C          4.9121   42.5400    3.3500   CA 1776  GRA        0.000000
   1777  C          7.3681   39.7040    3.3500   CA 1777  GRA        0.000000
   1778  C          6.1401   40.4130    3.3500   CA 1778  GRA        0.000000
   1779  C          6.1401   41.8310    3.3500   CA 1779  GRA        0.000000
   1780  C          7.3681   42.5400    3.3500   CA 1780  GRA        0.000000
   1781  C          9.8242   39.7040    3.3500   CA 1781  GRA        0.000000
   1782  C          8.5962   40.4130    3.3500   CA 1782  GRA        0.000000
   1783  C          8.5962   41.8310    3.3500   CA 1783  GRA        0.000000
   1784  C          9.8242   42.5400    3.3500   CA 1784  GRA        0.000000
   1785  C         12.2802   39.7040    3.3500   CA 1785  GRA        0.000000
   1786  C         11.0522   40.4130    3.3500   CA 1786  GRA        0.000000
   1787  C         11.0522   41.8310    3.3500   CA 1787  GRA        0.000000
   1788  C         12.2802   42.5400    3.3500   CA 1788  GRA        0.000000
   1789  C         14.7363   39.7040    3.3500   CA 1789  GRA        0.000000
   1790  C         13.5083   40.4130    3.3500   CA 1790  GRA        0.000000
   1791  C         13.5083   41.8310    3.3500   CA 1791  GRA        0.000000
   1792  C         14.7363   42.5400    3.3500   CA 1792  GRA        0.000000
   1793  C         17.1923   39.7040    3.3500   CA 1793  GRA        0.000000
   1794  C         15.9643   40.4130    3.3500   CA 1794  GRA        0.000000
   1795  C         15.9643   41.8310    3.3500   CA 1795  GRA        0.000000
   1796  C         17.1923   42.5400    3.3500   CA 1796  GRA        0.000000
   1797  C         19.6484   39.7040    3.3500   CA 1797  GRA        0.000000
   1798  C         18.4204   40.4130    3.3500   CA 1798  GRA        0.000000
   1799  C         18.4204   41.8310    3.3500   CA 1799  GRA        0.000000
   1800  C         19.6484   42.5400    3.3500   CA 1800  GRA        0.000000
   1801  C         22.1044   39.7040    3.3500   CA 1801  GRA        0.000000
   1802  C         20.8764   40.4130    3.3500   CA 1802  GRA        0.000000
   1803  C         20.8764   41.8310    3.3500   CA 1803  GRA        0.000000
   1804  C         22.1044   42.5400    3.3500   CA 1804  GRA        0.000000
   1805  C         24.5605   39.7040    3.3500   CA 1805  GRA        0.000000
   1806  C         23.3325   40.4130    3.3500   CA 1806  GRA        0.000000
   1807  C         23.3325   41.8310    3.3500   CA 1807  GRA        0.000000
   1808  C         24.5605   42.5400    3.3500   CA 1808  GRA        0.000000
   1809  C         27.0165   39.7040    3.3500   CA 1809  GRA        0.000000
   1810  C         25.7885   40.4130    3.3500   CA 1810  GRA        0.000000
   1811  C         25.7885   41.8310    3.3500   CA 1811  GRA        0.000000
   1812  C         27.0165   42.5400    3.3500   CA 1812  GRA        0.000000
   1813  C         29.4726   39.7040    3.3500   CA 1813  GRA        0.000000
   1814  C         28.2446   40.4130    3.3500   CA 1814  GRA        0.000000
   1815  C         28.2446   41.8310    3.3500   CA 1815  GRA        0.000000
   1816  C         29.4726   42.5400    3.3500   CA 1816  GRA        0.000000
   1817  C         31.9286   39.7040    3.3500   CA 1817  GRA        0.000000
   1818  C         30.7006   40.4130    3.3500   CA 1818  GRA        0.000000
   1819  C         30.7006   41.8310    3.3500   CA 1819  GRA        0.000000
   1820  C         31.9286   42.5400    3.3500   CA 1820  GRA        0.000000
   1821  C         34.3847   39.7040    3.3500   CA 1821  GRA        0.000000
   1822  C         33.1566   40.4130    3.3500   CA 1822  GRA        0.000000
   1823  C         33.1566   41.8310    3.3500   CA 1823  GRA        0.000000
   1824  C         34.3847   42.5400    3.3500   CA 1824  GRA        0.000000
   1825  C         36.8407   39.7040    3.3500   CA 1825  GRA        0.000000
   1826  C         35.6127   40.4130    3.3500   CA 1826  GRA        0.000000
   1827  C         35.6127   41.8310    3.3500   CA 1827  GRA        0.000000
   1828  C         36.8407   42.5400    3.3500   CA 1828  GRA        0.000000
   1829  C         39.2968   39.7040    3.3500   CA 1829  GRA        0.000000
   1830  C         38.0687   40.4130    3.3500   CA 1830  GRA        0.000000
   1831  C         38.0687   41.8310    3.3500   CA 1831  GRA        0.000000
   1832  C         39.2968   42.5400    3.3500   CA 1832  GRA        0.000000
   1833  C         41.7528   39.7040    3.3500   CA 1833  GRA        0.000000
   1834  C         40.5248   40.4130    3.3500   CA 1834  GRA        0.000000
   1835  C         40.5248   41.8310    3.3500   CA 1835  GRA        0.000000
   1836  C         41.7528   42.5400    3.3500   CA 1836  GRA        0.000000
   1837  C         44.2089   39.7040    3.3500   CA 1837  GRA        0.000000
   1838  C         42.9808   40.4130    3.3500   CA 1838  GRA        0.000000
   1839  C         42.9808   41.8310    3.3500   CA 1839  GRA        0.000000
   1840  C         44.2089   42.5400    3.3500   CA 1840  GRA        0.000000
   1841  C         46.6649   39.7040    3.3500   CA 1841  GRA        0.000000
   1842  C         45.4369   40.4130    3.3500   CA 1842  GRA        0.000000
   1843  C         45.4369   41.8310    3.3500   CA 1843  GRA        0.000000
   1844  C         46.6649   42.5400    3.3500   CA 1844  GRA        0.000000
   1845  C         49.1210   39.7040    3.3500   CA 1845  GRA        0.000000
   1846  C         47.8929   40.4130    3.3500   CA 1846  GRA        0.000000
   1847  C         47.8929   41.8310    3.3500   CA 1847  GRA        0.000000
   1848  C         49.1210   42.5400    3.3500   CA 1848  GRA        0.000000
   1849  C          0.0000   43.9580    3.3500   CA 1849  GRA        0.000000
   1850  C         -1.2280   44.6670    3.3500   CA 1850  GRA        0.000000
   1851  C         -1.2280   46.0850    3.3500   CA 1851  GRA        0.000000
   1852  C          0.0000   46.7940    3.3500   CA 1852  GRA        0.000000
   1853  C          2.4560   43.9580    3.3500   CA 1853  GRA        0.000000
   1854  C          1.2280   44.6670    3.3500   CA 1854  GRA        0.000000
   1855  C          1.2280   46.0850    3.3500   CA 1855  GRA        0.000000
   1856  C          2.4560   46.7940    3.3500   CA 1856  GRA        0.000000
   1857  C          4.9121   43.9580    3.3500   CA 1857  GRA        0.000000
   1858  C          3.6841   44.6670    3.3500   CA 1858  GRA        0.000000
   1859  C          3.6841   46.0850    3.3500   CA 1859  GRA        0.000000
   1860  C          4.9121   46.7940    3.3500   CA 1860  GRA        0.000000
   1861  C          7.3681   43.9580    3.3500   CA 1861  GRA        0.000000
   1862  C          6.1401   44.6670    3.3500   CA 1862  GRA        0.000000
   1863  C          6.1401   46.0850    3.3500   CA 1863  GRA        0.000000
   1864  C          7.3681   46.7940    3.3500   CA 1864  GRA        0.000000
   1865  C          9.8242   43.9580    3.3500   CA 1865  GRA        0.000000
   1866  C          8.5962   44.6670    3.3500   CA 1866  GRA        0.000000
   1867  C          8.5962   46.0850    3.3500   CA 1867  GRA        0.000000
   1868  C          9.8242   46.7940    3.3500   CA 1868  GRA        0.000000
   1869  C         12.2802   43.9580    3.3500   CA 1869  GRA        0.000000
   1870  C         11.0522   44.6670    3.3500   CA 1870  GRA        0.000000
   1871  C         11.0522   46.0850    3.3500   CA 1871  GRA        0.000000
   1872  C         12.2802   46.7940    3.3500   CA 1872  GRA        0.000000
   1873  C         14.7363   43.9580    3.3500   CA 1873  GRA        0.000000
   1874  C         13.5083   44.6670    3.3500   CA 1874  GRA        0.000000
   1875  C         13.5083   46.0850    3.3500   CA 1875  GRA        0.000000
   1876  C         14.7363   46.7940    3.3500   CA 1876  GRA        0.000000
   1877  C         17.1923   43.9580    3.3500   CA 1877  GRA        0.000000
   1878  C         15.9643   44.6670    3.3500   CA 1878  GRA        0.000000
   1879  C         15.9643   46.0850    3.3500   CA 1879  GRA        0.000000
   1880  C         17.1923   46.7940    3.3500   CA 1880  GRA        0.000000
   1881  C         19.6484   43.9580    3.3500   CA 1881  GRA        0.000000
   1882  C         18.4204   44.6670    3.3500   CA 1882  GRA        0.000000
   1883  C         18.4204   46.0850    3.3500   CA 1883  GRA        0.000000
   1884  C         19.6484   46.7940    3.3500   CA 1884  GRA        0.000000
   1885  C         22.1044   43.9580    3.3500   CA 1885  GRA        0.000000
   1886  C         20.8764   44.6670    3.3500   CA 1886  GRA        0.000000
   1887  C         20.8764   46.0850    3.3500   CA 1887  GRA        0.000000
   1888  C         22.1044   46.7940    3.3500   CA 1888  GRA        0.000000
   1889  C         24.5605   43.9580    3.3500   CA 1889  GRA        0.000000
   1890  C         23.3325   44.6670    3.3500   CA 1890  GRA        0.000000
   1891  C         23.3325   46.0850    3.3500   CA 1891  GRA        0.000000
   1892  C         24.5605   46.7940    3.3500   CA 1892  GRA        0.000000
   1893  C         27.0165   43.9580    3.3500   CA 1893  GRA        0.000000
   1894  C         25.7885   44.6670    3.3500   CA 1894  GRA        0.000000
   1895  C         25.7885   46.0850    3.3500   CA 1895  GRA        0.000000
   1896  C         27.0165   46.7940    3.3500   CA 1896  GRA        0.000000
   1897  C         29.4726   43.9580    3.3500   CA 1897  GRA        0.000000
   1898  C         28.2446   44.6670    3.3500   CA 1898  GRA        0.000000
   1899  C         28.2446   46.0850    3.3500   CA 1899  GRA        0.000000
   1900  C         29.4726   46.7940    3.3500   CA 1900  GRA        0.000000
   1901  C         31.9286   43.9580    3.3500   CA 1901  GRA        0.000000
   1902  C         30.7006   44.6670    3.3500   CA 1902  GRA        0.000000
   1903  C         30.7006   46.0850    3.3500   CA 1903  GRA        0.000000
   1904  C         31.9286   46.7940    3.3500   CA 1904  GRA        0.000000
   1905  C         34.3847   43.9580    3.3500   CA 1905  GRA        0.000000
   1906  C         33.1566   44.6670    3.3500   CA 1906  GRA        0.000000
   1907  C         33.1566   46.0850    3.3500   CA 1907  GRA        0.000000
   1908  C         34.3847   46.7940    3.3500   CA 1908  GRA        0.000000
   1909  C         36.8407   43.9580    3.3500   CA 1909  GRA        0.000000
   1910  C         35.6127   44.6670    3.3500   CA 1910  GRA        0.000000
   1911  C         35.6127   46.0850    3.3500   CA 1911  GRA        0.000000
   1912  C         36.8407   46.7940    3.3500   CA 1912  GRA        0.000000
   1913  C         39.2968   43.9580    3.3500   CA 1913  GRA        0.000000
   1914  C         38.0687   44.6670    3.3500   CA 1914  GRA        0.000000
   1915  C         38.0687   46.0850    3.3500   CA 1915  GRA        0.000000
   1916  C         39.2968   46.7940    3.3500   CA 1916  GRA        0.000000
   1917  C         41.7528   43.9580    3.3500   CA 1917  GRA        0.000000
   1918  C         40.5248   44.6670    3.3500   CA 1918  GRA        0.000000
   1919  C         40.5248   46.0850    3.3500   CA 1919  GRA        0.000000
   1920  C         41.7528   46.7940    3.3500   CA 1920  GRA        0.000000
   1921  C         44.2089   43.9580    3.3500   CA 1921  GRA        0.000000
   1922  C         42.9808   44.6670    3.3500   CA 1922  GRA        0.000000
   1923  C         42.9808   46.0850    3.3500   CA 1923  GRA        0.000000
   1924  C         44.2089   46.7940    3.3500   CA 1924  GRA        0.000000
   1925  C         46.6649   43.9580    3.3500   CA 1925  GRA        0.000000
   1926  C         45.4369   44.6670    3.3500   CA 1926  GRA        0.000000
   1927  C         45.4369   46.0850    3.3500   CA 1927  GRA        0.000000
   1928  C         46.6649   46.7940    3.3500   CA 1928  GRA        0.000000
   1929  C         49.1210   43.9580    3.3500   CA 1929  GRA        0.000000
   1930  C         47.8929   44.6670    3.3500   CA 1930  GRA        0.000000
   1931  C         47.8929   46.0850    3.3500   CA 1931  GRA        0.000000
   1932  C         49.1210   46.7940    3.3500   CA 1932  GRA        0.000000
   1933  C          0.0000   48.2120    3.3500   CA 1933  GRA        0.000000
   1934  C         -1.2280   48.9210    3.3500   CA 1934  GRA        0.000000
   1935  C         -1.2280   50.3390    3.3500   CA 1935  GRA        0.000000
   1936  C          0.0000   51.0480    3.3500   CA 1936  GRA        0.000000
   1937  C          2.4560   48.2120    3.3500   CA 1937  GRA        0.000000
   1938  C          1.2280   48.9210    3.3500   CA 1938  GRA        0.000000
   1939  C          1.2280   50.3390    3.3500   CA 1939  GRA        0.000000
   1940  C          2.4560   51.0480    3.3500   CA 1940  GRA        0.000000
   1941  C          4.9121   48.2120    3.3500   CA 1941  GRA        0.000000
   1942  C          3.6841   48.9210    3.3500   CA 1942  GRA        0.000000
   1943  C          3.6841   50.3390    3.3500   CA 1943  GRA        0.000000
   1944  C          4.9121   51.0480    3.3500   CA 1944  GRA        0.000000
   1945  C          7.3681   48.2120    3.3500   CA 1945  GRA        0.000000
   1946  C          6.1401   48.9210    3.3500   CA 1946  GRA        0.000000
   1947  C          6.1401   50.3390    3.3500   CA 1947  GRA        0.000000
   1948  C          7.3681   51.0480    3.3500   CA 1948  GRA        0.000000
   1949  C          9.8242   48.2120    3.3500   CA 1949  GRA        0.000000
   1950  C          8.5962   48.9210    3.3500   CA 1950  GRA        0.000000
   1951  C          8.5962   50.3390    3.3500   CA 1951  GRA        0.000000
   1952  C          9.8242   51.0480    3.3500   CA 1952  GRA        0.000000
   1953  C         12.2802   48.2120    3.3500   CA 1953  GRA        0.000000
   1954  C         11.0522   48.9210    3.3500   CA 1954  GRA        0.000000
   1955  C         11.0522   50.3390    3.3500   CA 1955  GRA        0.000000
   1956  C         12.2802   51.0480    3.3500   CA 1956  GRA        0.000000
   1957  C         14.7363   48.2120    3.3500   CA 1957  GRA        0.000000
   1958  C         13.5083   48.9210    3.3500   CA 1958  GRA        0.000000
   1959  C         13.5083   50.3390    3.3500   CA 1959  GRA        0.000000
   1960  C         14.7363   51.0480    3.3500   CA 1960  GRA        0.000000
   1961  C         17.1923   48.2120    3.3500   CA 1961  GRA        0.000000
   1962  C         15.9643   48.9210    3.3500   CA 1962  GRA        0.000000
   1963  C         15.9643   50.3390    3.3500   CA 1963  GRA        0.000000
   1964  C         17.1923   51.0480    3.3500   CA 1964  GRA        0.000000
   1965  C         19.6484   48.2120    3.3500   CA 1965  GRA        0.000000
   1966  C         18.4204   48.9210    3.3500   CA 1966  GRA        0.000000
   1967  C         18.4204   50.3390    3.3500   CA 1967  GRA        0.000000
   1968  C         19.6484   51.0480    3.3500   CA 1968  GRA        0.000000
   1969  C         22.1044   48.2120    3.3500   CA 1969  GRA        0.000000
   1970  C         20.8764   48.9210    3.3500   CA 1970  GRA        0.000000
   1971  C         20.8764   50.3390    3.3500   CA 1971  GRA        0.000000
   1972  C         22.1044   51.0480    3.3500   CA 1972  GRA        0.000000
   1973  C         24.5605   48.2120    3.3500   CA 1973  GRA        0.000000
   1974  C         23.3325   48.9210    3.3500   CA 1974  GRA        0.000000
   1975  C         23.3325   50.3390    3.3500   CA 1975  GRA        0.000000
   1976  C         24.5605   51.0480    3.3500   CA 1976  GRA        0.000000
   1977  C         27.0165   48.2120    3.3500   CA 1977  GRA        0.000000
   1978  C         25.7885   48.9210    3.3500   CA 1978  GRA        0.000000
   1979  C         25.7885   50.3390    3.3500   CA 1979  GRA        0.000000
   1980  C         27.0165   51.0480    3.3500   CA 1980  GRA        0.000000
   1981  C         29.4726   48.2120    3.3500   CA 1981  GRA        0.000000
   1982  C         28.2446   48.9210    3.3500   CA 1982  GRA        0.000000
   1983  C         28.2446   50.3390    3.3500   CA 1983  GRA        0.000000
   1984  C         29.4726   51.0480    3.3500   CA 1984  GRA        0.000000
   1985  C         31.9286   48.2120    3.3500   CA 1985  GRA        0.000000
   1986  C         30.7006   48.9210    3.3500   CA 1986  GRA        0.000000
   1987  C         30.7006   50.3390    3.3500   CA 1987  GRA        0.000000
   1988  C         31.9286   51.0480    3.3500   CA 1988  GRA        0.000000
   1989  C         34.3847   48.2120    3.3500   CA 1989  GRA        0.000000
   1990  C         33.1566   48.9210    3.3500   CA 1990  GRA        0.000000
   1991  C         33.1566   50.3390    3.3500   CA 1991  GRA        0.000000
   1992  C         34.3847   51.0480    3.3500   CA 1992  GRA        0.000000
   1993  C         36.8407   48.2120    3.3500   CA 1993  GRA        0.000000
   1994  C         35.6127   48.9210    3.3500   CA 1994  GRA        0.000000
   1995  C         35.6127   50.3390    3.3500   CA 1995  GRA        0.000000
   1996  C         36.8407   51.0480    3.3500   CA 1996  GRA        0.000000
   1997  C         39.2968   48.2120    3.3500   CA 1997  GRA        0.000000
   1998  C         38.0687   48.9210    3.3500   CA 1998  GRA        0.000000
   1999  C         38.0687   50.3390    3.3500   CA 1999  GRA        0.000000
   2000  C         39.2968   51.0480    3.3500   CA 2000  GRA        0.000000
   2001  C         41.7528   48.2120    3.3500   CA 2001  GRA        0.000000
   2002  C         40.5248   48.9210    3.3500   CA 2002  GRA        0.000000
   2003  C         40.5248   50.3390    3.3500   CA 2003  GRA        0.000000
   2004  C         41.7528   51.0480    3.3500   CA 2004  GRA        0.000000
   2005  C         44.2089   48.2120    3.3500   CA 2005  GRA        0.000000
   2006  C         42.9808   48.9210    3.3500   CA 2006  GRA        0.000000
   2007  C         42.9808   50.3390    3.3500   CA 2007  GRA        0.000000
   2008  C         44.2089   51.0480    3.3500   CA 2008  GRA        0.000000
   2009  C         46.6649   48.2120    3.3500   CA 2009  GRA        0.000000
   2010  C         45.4369   48.9210    3.3500   CA 2010  GRA        0.000000
   2011  C         45.4369   50.3390    3.3500   CA 2011  GRA        0.000000
   2012  C         46.6649   51.0480    3.3500   CA 2012  GRA        0.000000
   2013  C         49.1210   48.2120    3.3500   CA 2013  GRA        0.000000
   2014  C         47.8929   48.9210    3.3500   CA 2014  GRA        0.000000
   2015  C         47.8929   50.3390    3.3500   CA 2015  GRA        0.000000
   2016  C         49.1210   51.0480    3.3500   CA 2016  GRA        0.000000
@<TRIPOS>BOND
    1     1     2  1
    2     1     6  1
    3     2     3  1
    4     3     4  1
    5     4     7  1
    6     4    85  1
    7     5     6  1
    8     5    10  1
    9     6     7  1
   10     7     8  1
   11     8    11  1
   12     8    89  1
   13     9    14  1
   14     9    10  1
   15    10    11  1
   16    11    12  1
   17    12    15  1
   18    12    93  1
   19    13    18  1
   20    13    14  1
   21    14    15  1
   22    15    16  1
   23    16    19  1
   24    16    97  1
   25    17    22  1
   26    17    18  1
   27    18    19  1
   28    19    20  1
   29    20    23  1
   30    20   101  1
   31    21    22  1
   32    21    26  1
   33    22    23  1
   34    23    24  1
   35    24    27  1
   36    24   105  1
   37    25    26  1
   38    25    30  1
   39    26    27  1
   40    27    28  1
   41    28    31  1
   42    28   109  1
   43    29    34  1
   44    29    30  1
   45    30    31  1
   46    31    32  1
   47    32    35  1
   48    32   113  1
   49    33    38  1
   50    33    34  1
   51    34    35  1
   52    35    36  1
   53    36    39  1
   54    36   117  1
   55    37    42  1
   56    37    38  1
   57    38    39  1
   58    39    40  1
   59    40    43  1
   60    40   121  1
   61    41    42  1
   62    41    46  1
   63    42    43  1
   64    43    44  1
   65    44    47  1
   66    44   125  1
   67    45    46  1
   68    45    50  1
   69    46    47  1
   70    47    48  1
   71    48    51  1
   72    48   129  1
   73    49    54  1
   74    49    50  1
   75    50    51  1
   76    51    52  1
   77    52    55  1
   78    52   133  1
   79    53    54  1
   80    53    58  1
   81    54    55  1
   82    55    56  1
   83    56    59  1
   84    56   137  1
   85    57    62  1
   86    57    58  1
   87    58    59  1
   88    59    60  1
   89    60    63  1
   90    60   141  1
   91    61    62  1
   92    61    66  1
   93    62    63  1
   94    63    64  1
   95    64    67  1
   96    64   145  1
   97    65    66  1
   98    65    70  1
   99    66    67  1
  100    67    68  1
  101    68    71  1
  102    68   149  1
  103    69    74  1
  104    69    70  1
  105    70    71  1
  106    71    72  1
  107    72    75  1
  108    72   153  1
  109    73    78  1
  110    73    74  1
  111    74    75  1
  112    75    76  1
  113    76    79  1
  114    76   157  1
  115    77    82  1
  116    77    78  1
  117    78    79  1
  118    79    80  1
  119    80    83  1
  120    80   161  1
  121    81    82  1
  122    82    83  1
  123    83    84  1
  124    84   165  1
  125    85    86  1
  126    85    90  1
  127    86    87  1
  128    87    88  1
  129    88    91  1
  130    88   169  1
  131    89    90  1
  132    89    94  1
  133    90    91  1
  134    91    92  1
  135    92    95  1
  136    92   173  1
  137    93    98  1
  138    93    94  1
  139    94    95  1
  140    95    96  1
  141    96    99  1
  142    96   177  1
  143    97   102  1
  144    97    98  1
  145    98    99  1
  146    99   100  1
  147   100   103  1
  148   100   181  1
  149   101   106  1
  150   101   102  1
  151   102   103  1
  152   103   104  1
  153   104   107  1
  154   104   185  1
  155   105   106  1
  156   105   110  1
  157   106   107  1
  158   107   108  1
  159   108   111  1
  160   108   189  1
  161   109   110  1
  162   109   114  1
  163   110   111  1
  164   111   112  1
  165   112   115  1
  166   112   193  1
  167   113   118  1
  168   113   114  1
  169   114   115  1
  170   115   116  1
  171   116   119  1
  172   116   197  1
  173   117   122  1
  174   117   118  1
  175   118   119  1
  176   119   120  1
  177   120   123  1
  178   120   201  1
  179   121   126  1
  180   121   122  1
  181   122   123  1
  182   123   124  1
  183   124   127  1
  184   124   205  1
  185   125   126  1
  186   125   130  1
  187   126   127  1
  188   127   128  1
  189   128   131  1
  190   128   209  1
  191   129   130  1
  192   129   134  1
  193   130   131  1
  194   131   132  1
  195   132   135  1
  196   132   213  1
  197   133   138  1
  198   133   134  1
  199   134   135  1
  200   135   136  1
  201   136   139  1
  202   136   217  1
  203   137   142  1
  204   137   138  1
  205   138   139  1
  206   139   140  1
  207   140   143  1
  208   140   221  1
  209   141   146  1
  210   141   142  1
  211   142   143  1
  212   143   144  1
  213   144   147  1
  214   144   225  1
  215   145   146  1
  216   145   150  1
  217   146   147  1
  218   147   148  1
  219   148   151  1
  220   148   229  1
  221   149   150  1
  222   149   154  1
  223   150   151  1
  224   151   152  1
  225   152   155  1
  226   152   233  1
  227   153   158  1
  228   153   154  1
  229   154   155  1
  230   155   156  1
  231   156   159  1
  232   156   237  1
  233   157   162  1
  234   157   158  1
  235   158   159  1
  236   159   160  1
  237   160   163  1
  238   160   241  1
  239   161   166  1
  240   161   162  1
  241   162   163  1
  242   163   164  1
  243   164   167  1
  244   164   245  1
  245   165   166  1
  246   166   167  1
  247   167   168  1
  248   168   249  1
  249   169   170  1
  250   169   174  1
  251   170   171  1
  252   171   172  1
  253   172   175  1
  254   172   253  1
  255   173   174  1
  256   173   178  1
  257   174   175  1
  258   175   176  1
  259   176   179  1
  260   176   257  1
  261   177   182  1
  262   177   178  1
  263   178   179  1
  264   179   180  1
  265   180   183  1
  266   180   261  1
  267   181   186  1
  268   181   182  1
  269   182   183  1
  270   183   184  1
  271   184   187  1
  272   184   265  1
  273   185   190  1
  274   185   186  1
  275   186   187  1
  276   187   188  1
  277   188   191  1
  278   188   269  1
  279   189   190  1
  280   189   194  1
  281   190   191  1
  282   191   192  1
  283   192   195  1
  284   192   273  1
  285   193   194  1
  286   193   198  1
  287   194   195  1
  288   195   196  1
  289   196   199  1
  290   196   277  1
  291   197   202  1
  292   197   198  1
  293   198   199  1
  294   199   200  1
  295   200   203  1
  296   200   281  1
  297   201   206  1
  298   201   202  1
  299   202   203  1
  300   203   204  1
  301   204   207  1
  302   204   285  1
  303   205   210  1
  304   205   206  1
  305   206   207  1
  306   207   208  1
  307   208   211  1
  308   208   289  1
  309   209   210  1
  310   209   214  1
  311   210   211  1
  312   211   212  1
  313   212   215  1
  314   212   293  1
  315   213   214  1
  316   213   218  1
  317   214   215  1
  318   215   216  1
  319   216   219  1
  320   216   297  1
  321   217   222  1
  322   217   218  1
  323   218   219  1
  324   219   220  1
  325   220   223  1
  326   220   301  1
  327   221   226  1
  328   221   222  1
  329   222   223  1
  330   223   224  1
  331   224   227  1
  332   224   305  1
  333   225   230  1
  334   225   226  1
  335   226   227  1
  336   227   228  1
  337   228   231  1
  338   228   309  1
  339   229   230  1
  340   229   234  1
  341   230   231  1
  342   231   232  1
  343   232   235  1
  344   232   313  1
  345   233   234  1
  346   233   238  1
  347   234   235  1
  348   235   236  1
  349   236   239  1
  350   236   317  1
  351   237   242  1
  352   237   238  1
  353   238   239  1
  354   239   240  1
  355   240   243  1
  356   240   321  1
  357   241   246  1
  358   241   242  1
  359   242   243  1
  360   243   244  1
  361   244   247  1
  362   244   325  1
  363   245   250  1
  364   245   246  1
  365   246   247  1
  366   247   248  1
  367   248   251  1
  368   248   329  1
  369   249   250  1
  370   250   251  1
  371   251   252  1
  372   252   333  1
  373   253   254  1
  374   253   258  1
  375   254   255  1
  376   255   256  1
  377   256   259  1
  378   256   337  1
  379   257   258  1
  380   257   262  1
  381   258   259  1
  382   259   260  1
  383   260   263  1
  384   260   341  1
  385   261   266  1
  386   261   262  1
  387   262   263  1
  388   263   264  1
  389   264   267  1
  390   264   345  1
  391   265   270  1
  392   265   266  1
  393   266   267  1
  394   267   268  1
  395   268   271  1
  396   268   349  1
  397   269   274  1
  398   269   270  1
  399   270   271  1
  400   271   272  1
  401   272   275  1
  402   272   353  1
  403   273   274  1
  404   273   278  1
  405   274   275  1
  406   275   276  1
  407   276   279  1
  408   276   357  1
  409   277   278  1
  410   277   282  1
  411   278   279  1
  412   279   280  1
  413   280   283  1
  414   280   361  1
  415   281   286  1
  416   281   282  1
  417   282   283  1
  418   283   284  1
  419   284   287  1
  420   284   365  1
  421   285   286  1
  422   285   290  1
  423   286   287  1
  424   287   288  1
  425   288   291  1
  426   288   369  1
  427   289   294  1
  428   289   290  1
  429   290   291  1
  430   291   292  1
  431   292   295  1
  432   292   373  1
  433   293   294  1
  434   293   298  1
  435   294   295  1
  436   295   296  1
  437   296   299  1
  438   296   377  1
  439   297   298  1
  440   297   302  1
  441   298   299  1
  442   299   300  1
  443   300   303  1
  444   300   381  1
  445   301   306  1
  446   301   302  1
  447   302   303  1
  448   303   304  1
  449   304   307  1
  450   304   385  1
  451   305   310  1
  452   305   306  1
  453   306   307  1
  454   307   308  1
  455   308   311  1
  456   308   389  1
  457   309   314  1
  458   309   310  1
  459   310   311  1
  460   311   312  1
  461   312   315  1
  462   312   393  1
  463   313   314  1
  464   313   318  1
  465   314   315  1
  466   315   316  1
  467   316   319  1
  468   316   397  1
  469   317   318  1
  470   317   322  1
  471   318   319  1
  472   319   320  1
  473   320   323  1
  474   320   401  1
  475   321   326  1
  476   321   322  1
  477   322   323  1
  478   323   324  1
  479   324   327  1
  480   324   405  1
  481   325   330  1
  482   325   326  1
  483   326   327  1
  484   327   328  1
  485   328   331  1
  486   328   409  1
  487   329   334  1
  488   329   330  1
  489   330   331  1
  490   331   332  1
  491   332   335  1
  492   332   413  1
  493   333   334  1
  494   334   335  1
  495   335   336  1
  496   336   417  1
  497   337   338  1
  498   337   342  1
  499   338   339  1
  500   339   340  1
  501   340   343  1
  502   340   421  1
  503   341   342  1
  504   341   346  1
  505   342   343  1
  506   343   344  1
  507   344   347  1
  508   344   425  1
  509   345   350  1
  510   345   346  1
  511   346   347  1
  512   347   348  1
  513   348   351  1
  514   348   429  1
  515   349   354  1
  516   349   350  1
  517   350   351  1
  518   351   352  1
  519   352   355  1
  520   352   433  1
  521   353   358  1
  522   353   354  1
  523   354   355  1
  524   355   356  1
  525   356   359  1
  526   356   437  1
  527   357   358  1
  528   357   362  1
  529   358   359  1
  530   359   360  1
  531   360   363  1
  532   360   441  1
  533   361   362  1
  534   361   366  1
  535   362   363  1
  536   363   364  1
  537   364   367  1
  538   364   445  1
  539   365   370  1
  540   365   366  1
  541   366   367  1
  542   367   368  1
  543   368   371  1
  544   368   449  1
  545   369   374  1
  546   369   370  1
  547   370   371  1
  548   371   372  1
  549   372   375  1
  550   372   453  1
  551   373   378  1
  552   373   374  1
  553   374   375  1
  554   375   376  1
  555   376   379  1
  556   376   457  1
  557   377   378  1
  558   377   382  1
  559   378   379  1
  560   379   380  1
  561   380   383  1
  562   380   461  1
  563   381   382  1
  564   381   386  1
  565   382   383  1
  566   383   384  1
  567   384   387  1
  568   384   465  1
  569   385   390  1
  570   385   386  1
  571   386   387  1
  572   387   388  1
  573   388   391  1
  574   388   469  1
  575   389   394  1
  576   389   390  1
  577   390   391  1
  578   391   392  1
  579   392   395  1
  580   392   473  1
  581   393   398  1
  582   393   394  1
  583   394   395  1
  584   395   396  1
  585   396   399  1
  586   396   477  1
  587   397   398  1
  588   397   402  1
  589   398   399  1
  590   399   400  1
  591   400   403  1
  592   400   481  1
  593   401   402  1
  594   401   406  1
  595   402   403  1
  596   403   404  1
  597   404   407  1
  598   404   485  1
  599   405   410  1
  600   405   406  1
  601   406   407  1
  602   407   408  1
  603   408   411  1
  604   408   489  1
  605   409   414  1
  606   409   410  1
  607   410   411  1
  608   411   412  1
  609   412   415  1
  610   412   493  1
  611   413   418  1
  612   413   414  1
  613   414   415  1
  614   415   416  1
  615   416   419  1
  616   416   497  1
  617   417   418  1
  618   418   419  1
  619   419   420  1
  620   420   501  1
  621   421   422  1
  622   421   426  1
  623   422   423  1
  624   423   424  1
  625   424   427  1
  626   424   505  1
  627   425   426  1
  628   425   430  1
  629   426   427  1
  630   427   428  1
  631   428   431  1
  632   428   509  1
  633   429   434  1
  634   429   430  1
  635   430   431  1
  636   431   432  1
  637   432   435  1
  638   432   513  1
  639   433   438  1
  640   433   434  1
  641   434   435  1
  642   435   436  1
  643   436   439  1
  644   436   517  1
  645   437   442  1
  646   437   438  1
  647   438   439  1
  648   439   440  1
  649   440   443  1
  650   440   521  1
  651   441   442  1
  652   441   446  1
  653   442   443  1
  654   443   444  1
  655   444   447  1
  656   444   525  1
  657   445   446  1
  658   445   450  1
  659   446   447  1
  660   447   448  1
  661   448   451  1
  662   448   529  1
  663   449   454  1
  664   449   450  1
  665   450   451  1
  666   451   452  1
  667   452   455  1
  668   452   533  1
  669   453   458  1
  670   453   454  1
  671   454   455  1
  672   455   456  1
  673   456   459  1
  674   456   537  1
  675   457   462  1
  676   457   458  1
  677   458   459  1
  678   459   460  1
  679   460   463  1
  680   460   541  1
  681   461   462  1
  682   461   466  1
  683   462   463  1
  684   463   464  1
  685   464   467  1
  686   464   545  1
  687   465   466  1
  688   465   470  1
  689   466   467  1
  690   467   468  1
  691   468   471  1
  692   468   549  1
  693   469   474  1
  694   469   470  1
  695   470   471  1
  696   471   472  1
  697   472   475  1
  698   472   553  1
  699   473   478  1
  700   473   474  1
  701   474   475  1
  702   475   476  1
  703   476   479  1
  704   476   557  1
  705   477   482  1
  706   477   478  1
  707   478   479  1
  708   479   480  1
  709   480   483  1
  710   480   561  1
  711   481   482  1
  712   481   486  1
  713   482   483  1
  714   483   484  1
  715   484   487  1
  716   484   565  1
  717   485   486  1
  718   485   490  1
  719   486   487  1
  720   487   488  1
  721   488   491  1
  722   488   569  1
  723   489   494  1
  724   489   490  1
  725   490   491  1
  726   491   492  1
  727   492   495  1
  728   492   573  1
  729   493   494  1
  730   493   498  1
  731   494   495  1
  732   495   496  1
  733   496   499  1
  734   496   577  1
  735   497   502  1
  736   497   498  1
  737   498   499  1
  738   499   500  1
  739   500   503  1
  740   500   581  1
  741   501   502  1
  742   502   503  1
  743   503   504  1
  744   504   585  1
  745   505   506  1
  746   505   510  1
  747   506   507  1
  748   507   508  1
  749   508   511  1
  750   508   589  1
  751   509   510  1
  752   509   514  1
  753   510   511  1
  754   511   512  1
  755   512   515  1
  756   512   593  1
  757   513   518  1
  758   513   514  1
  759   514   515  1
  760   515   516  1
  761   516   519  1
  762   516   597  1
  763   517   518  1
  764   517   522  1
  765   518   519  1
  766   519   520  1
  767   520   523  1
  768   520   601  1
  769   521   526  1
  770   521   522  1
  771   522   523  1
  772   523   524  1
  773   524   527  1
  774   524   605  1
  775   525   526  1
  776   525   530  1
  777   526   527  1
  778   527   528  1
  779   528   531  1
  780   528   609  1
  781   529   530  1
  782   529   534  1
  783   530   531  1
  784   531   532  1
  785   532   535  1
  786   532   613  1
  787   533   538  1
  788   533   534  1
  789   534   535  1
  790   535   536  1
  791   536   539  1
  792   536   617  1
  793   537   542  1
  794   537   538  1
  795   538   539  1
  796   539   540  1
  797   540   543  1
  798   540   621  1
  799   541   546  1
  800   541   542  1
  801   542   543  1
  802   543   544  1
  803   544   547  1
  804   544   625  1
  805   545   546  1
  806   545   550  1
  807   546   547  1
  808   547   548  1
  809   548   551  1
  810   548   629  1
  811   549   550  1
  812   549   554  1
  813   550   551  1
  814   551   552  1
  815   552   555  1
  816   552   633  1
  817   553   558  1
  818   553   554  1
  819   554   555  1
  820   555   556  1
  821   556   559  1
  822   556   637  1
  823   557   562  1
  824   557   558  1
  825   558   559  1
  826   559   560  1
  827   560   563  1
  828   560   641  1
  829   561   566  1
  830   561   562  1
  831   562   563  1
  832   563   564  1
  833   564   567  1
  834   564   645  1
  835   565   566  1
  836   565   570  1
  837   566   567  1
  838   567   568  1
  839   568   571  1
  840   568   649  1
  841   569   570  1
  842   569   574  1
  843   570   571  1
  844   571   572  1
  845   572   575  1
  846   572   653  1
  847   573   578  1
  848   573   574  1
  849   574   575  1
  850   575   576  1
  851   576   579  1
  852   576   657  1
  853   577   582  1
  854   577   578  1
  855   578   579  1
  856   579   580  1
  857   580   583  1
  858   580   661  1
  859   581   586  1
  860   581   582  1
  861   582   583  1
  862   583   584  1
  863   584   587  1
  864   584   665  1
  865   585   586  1
  866   586   587  1
  867   587   588  1
  868   588   669  1
  869   589   590  1
  870   589   594  1
  871   590   591  1
  872   591   592  1
  873   592   595  1
  874   592   673  1
  875   593   594  1
  876   593   598  1
  877   594   595  1
  878   595   596  1
  879   596   599  1
  880   596   677  1
  881   597   602  1
  882   597   598  1
  883   598   599  1
  884   599   600  1
  885   600   603  1
  886   600   681  1
  887   601   606  1
  888   601   602  1
  889   602   603  1
  890   603   604  1
  891   604   607  1
  892   604   685  1
  893   605   610  1
  894   605   606  1
  895   606   607  1
  896   607   608  1
  897   608   611  1
  898   608   689  1
  899   609   610  1
  900   609   614  1
  901   610   611  1
  902   611   612  1
  903   612   615  1
  904   612   693  1
  905   613   614  1
  906   613   618  1
  907   614   615  1
  908   615   616  1
  909   616   619  1
  910   616   697  1
  911   617   622  1
  912   617   618  1
  913   618   619  1
  914   619   620  1
  915   620   623  1
  916   620   701  1
  917   621   626  1
  918   621   622  1
  919   622   623  1
  920   623   624  1
  921   624   627  1
  922   624   705  1
  923   625   630  1
  924   625   626  1
  925   626   627  1
  926   627   628  1
  927   628   631  1
  928   628   709  1
  929   629   630  1
  930   629   634  1
  931   630   631  1
  932   631   632  1
  933   632   635  1
  934   632   713  1
  935   633   634  1
  936   633   638  1
  937   634   635  1
  938   635   636  1
  939   636   639  1
  940   636   717  1
  941   637   642  1
  942   637   638  1
  943   638   639  1
  944   639   640  1
  945   640   643  1
  946   640   721  1
  947   641   646  1
  948   641   642  1
  949   642   643  1
  950   643   644  1
  951   644   647  1
  952   644   725  1
  953   645   650  1
  954   645   646  1
  955   646   647  1
  956   647   648  1
  957   648   651  1
  958   648   729  1
  959   649   650  1
  960   649   654  1
  961   650   651  1
  962   651   652  1
  963   652   655  1
  964   652   733  1
  965   653   654  1
  966   653   658  1
  967   654   655  1
  968   655   656  1
  969   656   659  1
  970   656   737  1
  971   657   662  1
  972   657   658  1
  973   658   659  1
  974   659   660  1
  975   660   663  1
  976   660   741  1
  977   661   666  1
  978   661   662  1
  979   662   663  1
  980   663   664  1
  981   664   667  1
  982   664   745  1
  983   665   670  1
  984   665   666  1
  985   666   667  1
  986   667   668  1
  987   668   671  1
  988   668   749  1
  989   669   670  1
  990   670   671  1
  991   671   672  1
  992   672   753  1
  993   673   674  1
  994   673   678  1
  995   674   675  1
  996   675   676  1
  997   676   757  1
  998   676   679  1
  999   677   678  1
 1000   677   682  1
 1001   678   679  1
 1002   679   680  1
 1003   680   761  1
 1004   680   683  1
 1005   681   682  1
 1006   681   686  1
 1007   682   683  1
 1008   683   684  1
 1009   684   687  1
 1010   684   765  1
 1011   685   686  1
 1012   685   690  1
 1013   686   687  1
 1014   687   688  1
 1015   688   691  1
 1016   688   769  1
 1017   689   690  1
 1018   689   694  1
 1019   690   691  1
 1020   691   692  1
 1021   692   773  1
 1022   692   695  1
 1023   693   694  1
 1024   693   698  1
 1025   694   695  1
 1026   695   696  1
 1027   696   777  1
 1028   696   699  1
 1029   697   698  1
 1030   697   702  1
 1031   698   699  1
 1032   699   700  1
 1033   700   781  1
 1034   700   703  1
 1035   701   706  1
 1036   701   702  1
 1037   702   703  1
 1038   703   704  1
 1039   704   785  1
 1040   704   707  1
 1041   705   710  1
 1042   705   706  1
 1043   706   707  1
 1044   707   708  1
 1045   708   789  1
 1046   708   711  1
 1047   709   714  1
 1048   709   710  1
 1049   710   711  1
 1050   711   712  1
 1051   712   793  1
 1052   712   715  1
 1053   713   714  1
 1054   713   718  1
 1055   714   715  1
 1056   715   716  1
 1057   716   797  1
 1058   716   719  1
 1059   717   718  1
 1060   717   722  1
 1061   718   719  1
 1062   719   720  1
 1063   720   801  1
 1064   720   723  1
 1065   721   726  1
 1066   721   722  1
 1067   722   723  1
 1068   723   724  1
 1069   724   727  1
 1070   724   805  1
 1071   725   726  1
 1072   725   730  1
 1073   726   727  1
 1074   727   728  1
 1075   728   731  1
 1076   728   809  1
 1077   729   730  1
 1078   729   734  1
 1079   730   731  1
 1080   731   732  1
 1081   732   813  1
 1082   732   735  1
 1083   733   734  1
 1084   733   738  1
 1085   734   735  1
 1086   735   736  1
 1087   736   817  1
 1088   736   739  1
 1089   737   738  1
 1090   737   742  1
 1091   738   739  1
 1092   739   740  1
 1093   740   821  1
 1094   740   743  1
 1095   741   742  1
 1096   741   746  1
 1097   742   743  1
 1098   743   744  1
 1099   744   747  1
 1100   744   825  1
 1101   745   746  1
 1102   745   750  1
 1103   746   747  1
 1104   747   748  1
 1105   748   751  1
 1106   748   829  1
 1107   749   750  1
 1108   749   754  1
 1109   750   751  1
 1110   751   752  1
 1111   752   833  1
 1112   752   755  1
 1113   753   754  1
 1114   754   755  1
 1115   755   756  1
 1116   756   837  1
 1117   757   758  1
 1118   757   762  1
 1119   758   759  1
 1120   759   760  1
 1121   760   841  1
 1122   760   763  1
 1123   761   762  1
 1124   761   766  1
 1125   762   763  1
 1126   763   764  1
 1127   764   845  1
 1128   764   767  1
 1129   765   766  1
 1130   765   770  1
 1131   766   767  1
 1132   767   768  1
 1133   768   771  1
 1134   768   849  1
 1135   769   770  1
 1136   769   774  1
 1137   770   771  1
 1138   771   772  1
 1139   772   775  1
 1140   772   853  1
 1141   773   774  1
 1142   773   778  1
 1143   774   775  1
 1144   775   776  1
 1145   776   857  1
 1146   776   779  1
 1147   777   778  1
 1148   777   782  1
 1149   778   779  1
 1150   779   780  1
 1151   780   861  1
 1152   780   783  1
 1153   781   782  1
 1154   781   786  1
 1155   782   783  1
 1156   783   784  1
 1157   784   865  1
 1158   784   787  1
 1159   785   790  1
 1160   785   786  1
 1161   786   787  1
 1162   787   788  1
 1163   788   869  1
 1164   788   791  1
 1165   789   794  1
 1166   789   790  1
 1167   790   791  1
 1168   791   792  1
 1169   792   873  1
 1170   792   795  1
 1171   793   798  1
 1172   793   794  1
 1173   794   795  1
 1174   795   796  1
 1175   796   877  1
 1176   796   799  1
 1177   797   798  1
 1178   797   802  1
 1179   798   799  1
 1180   799   800  1
 1181   800   881  1
 1182   800   803  1
 1183   801   802  1
 1184   801   806  1
 1185   802   803  1
 1186   803   804  1
 1187   804   885  1
 1188   804   807  1
 1189   805   806  1
 1190   805   810  1
 1191   806   807  1
 1192   807   808  1
 1193   808   811  1
 1194   808   889  1
 1195   809   810  1
 1196   809   814  1
 1197   810   811  1
 1198   811   812  1
 1199   812   815  1
 1200   812   893  1
 1201   813   814  1
 1202   813   818  1
 1203   814   815  1
 1204   815   816  1
 1205   816   897  1
 1206   816   819  1
 1207   817   818  1
 1208   817   822  1
 1209   818   819  1
 1210   819   820  1
 1211   820   901  1
 1212   820   823  1
 1213   821   822  1
 1214   821   826  1
 1215   822   823  1
 1216   823   824  1
 1217   824   905  1
 1218   824   827  1
 1219   825   826  1
 1220   825   830  1
 1221   826   827  1
 1222   827   828  1
 1223   828   909  1
 1224   828   831  1
 1225   829   834  1
 1226   829   830  1
 1227   830   831  1
 1228   831   832  1
 1229   832   913  1
 1230   832   835  1
 1231   833   838  1
 1232   833   834  1
 1233   834   835  1
 1234   835   836  1
 1235   836   917  1
 1236   836   839  1
 1237   837   838  1
 1238   838   839  1
 1239   839   840  1
 1240   840   921  1
 1241   841   842  1
 1242   841   846  1
 1243   842   843  1
 1244   843   844  1
 1245   844   925  1
 1246   844   847  1
 1247   845   846  1
 1248   845   850  1
 1249   846   847  1
 1250   847   848  1
 1251   848   929  1
 1252   848   851  1
 1253   849   850  1
 1254   849   854  1
 1255   850   851  1
 1256   851   852  1
 1257   852   933  1
 1258   852   855  1
 1259   853   858  1
 1260   853   854  1
 1261   854   855  1
 1262   855   856  1
 1263   856   937  1
 1264   856   859  1
 1265   857   862  1
 1266   857   858  1
 1267   858   859  1
 1268   859   860  1
 1269   860   941  1
 1270   860   863  1
 1271   861   862  1
 1272   861   866  1
 1273   862   863  1
 1274   863   864  1
 1275   864   945  1
 1276   864   867  1
 1277   865   866  1
 1278   865   870  1
 1279   866   867  1
 1280   867   868  1
 1281   868   949  1
 1282   868   871  1
 1283   869   874  1
 1284   869   870  1
 1285   870   871  1
 1286   871   872  1
 1287   872   953  1
 1288   872   875  1
 1289   873   878  1
 1290   873   874  1
 1291   874   875  1
 1292   875   876  1
 1293   876   879  1
 1294   876   957  1
 1295   877   882  1
 1296   877   878  1
 1297   878   879  1
 1298   879   880  1
 1299   880   961  1
 1300   880   883  1
 1301   881   882  1
 1302   881   886  1
 1303   882   883  1
 1304   883   884  1
 1305   884   965  1
 1306   884   887  1
 1307   885   886  1
 1308   885   890  1
 1309   886   887  1
 1310   887   888  1
 1311   888   969  1
 1312   888   891  1
 1313   889   890  1
 1314   889   894  1
 1315   890   891  1
 1316   891   892  1
 1317   892   895  1
 1318   892   973  1
 1319   893   894  1
 1320   893   898  1
 1321   894   895  1
 1322   895   896  1
 1323   896   899  1
 1324   896   977  1
 1325   897   898  1
 1326   897   902  1
 1327   898   899  1
 1328   899   900  1
 1329   900   981  1
 1330   900   903  1
 1331   901   902  1
 1332   901   906  1
 1333   902   903  1
 1334   903   904  1
 1335   904   985  1
 1336   904   907  1
 1337   905   906  1
 1338   905   910  1
 1339   906   907  1
 1340   907   908  1
 1341   908   989  1
 1342   908   911  1
 1343   909   914  1
 1344   909   910  1
 1345   910   911  1
 1346   911   912  1
 1347   912   993  1
 1348   912   915  1
 1349   913   918  1
 1350   913   914  1
 1351   914   915  1
 1352   915   916  1
 1353   916   997  1
 1354   916   919  1
 1355   917   922  1
 1356   917   918  1
 1357   918   919  1
 1358   919   920  1
 1359   920  1001  1
 1360   920   923  1
 1361   921   922  1
 1362   922   923  1
 1363   923   924  1
 1364   924  1005  1
 1365   925   926  1
 1366   925   930  1
 1367   926   927  1
 1368   927   928  1
 1369   928   931  1
 1370   929   930  1
 1371   929   934  1
 1372   930   931  1
 1373   931   932  1
 1374   932   935  1
 1375   933   938  1
 1376   933   934  1
 1377   934   935  1
 1378   935   936  1
 1379   936   939  1
 1380   937   942  1
 1381   937   938  1
 1382   938   939  1
 1383   939   940  1
 1384   940   943  1
 1385   941   946  1
 1386   941   942  1
 1387   942   943  1
 1388   943   944  1
 1389   944   947  1
 1390   945   946  1
 1391   945   950  1
 1392   946   947  1
 1393   947   948  1
 1394   948   951  1
 1395   949   950  1
 1396   949   954  1
 1397   950   951  1
 1398   951   952  1
 1399   952   955  1
 1400   953   958  1
 1401   953   954  1
 1402   954   955  1
 1403   955   956  1
 1404   956   959  1
 1405   957   958  1
 1406   957   962  1
 1407   958   959  1
 1408   959   960  1
 1409   960   963  1
 1410   961   962  1
 1411   961   966  1
 1412   962   963  1
 1413   963   964  1
 1414   964   967  1
 1415   965   966  1
 1416   965   970  1
 1417   966   967  1
 1418   967   968  1
 1419   968   971  1
 1420   969   970  1
 1421   969   974  1
 1422   970   971  1
 1423   971   972  1
 1424   972   975  1
 1425   973   974  1
 1426   973   978  1
 1427   974   975  1
 1428   975   976  1
 1429   976   979  1
 1430   977   978  1
 1431   977   982  1
 1432   978   979  1
 1433   979   980  1
 1434   980   983  1
 1435   981   982  1
 1436   981   986  1
 1437   982   983  1
 1438   983   984  1
 1439   984   987  1
 1440   985   986  1
 1441   985   990  1
 1442   986   987  1
 1443   987   988  1
 1444   988   991  1
 1445   989   990  1
 1446   989   994  1
 1447   990   991  1
 1448   991   992  1
 1449   992   995  1
 1450   993   998  1
 1451   993   994  1
 1452   994   995  1
 1453   995   996  1
 1454   996   999  1
 1455   997  1002  1
 1456   997   998  1
 1457   998   999  1
 1458   999  1000  1
 1459  1000  1003  1
 1460  1001  1006  1
 1461  1001  1002  1
 1462  1002  1003  1
 1463  1003  1004  1
 1464  1004  1007  1
 1465  1005  1006  1
 1466  1006  1007  1
 1467  1007  1008  1
 1468  1009  1010  1
 1469  1009  1014  1
 1470  1010  1011  1
 1471  1011  1012  1
 1472  1012  1093  1
 1473  1012  1015  1
 1474  1013  1014  1
 1475  1013  1018  1
 1476  1014  1015  1
 1477  1015  1016  1
 1478  1016  1097  1
 1479  1016  1019  1
 1480  1017  1022  1
 1481  1017  1018  1
 1482  1018  1019  1
 1483  1019  1020  1
 1484  1020  1101  1
 1485  1020  1023  1
 1486  1021  1026  1
 1487  1021  1022  1
 1488  1022  1023  1
 1489  1023  1024  1
 1490  1024  1027  1
 1491  1024  1105  1
 1492  1025  1030  1
 1493  1025  1026  1
 1494  1026  1027  1
 1495  1027  1028  1
 1496  1028  1109  1
 1497  1028  1031  1
 1498  1029  1030  1
 1499  1029  1034  1
 1500  1030  1031  1
 1501  1031  1032  1
 1502  1032  1113  1
 1503  1032  1035  1
 1504  1033  1034  1
 1505  1033  1038  1
 1506  1034  1035  1
 1507  1035  1036  1
 1508  1036  1117  1
 1509  1036  1039  1
 1510  1037  1038  1
 1511  1037  1042  1
 1512  1038  1039  1
 1513  1039  1040  1
 1514  1040  1043  1
 1515  1040  1121  1
 1516  1041  1042  1
 1517  1041  1046  1
 1518  1042  1043  1
 1519  1043  1044  1
 1520  1044  1047  1
 1521  1044  1125  1
 1522  1045  1046  1
 1523  1045  1050  1
 1524  1046  1047  1
 1525  1047  1048  1
 1526  1048  1129  1
 1527  1048  1051  1
 1528  1049  1050  1
 1529  1049  1054  1
 1530  1050  1051  1
 1531  1051  1052  1
 1532  1052  1133  1
 1533  1052  1055  1
 1534  1053  1054  1
 1535  1053  1058  1
 1536  1054  1055  1
 1537  1055  1056  1
 1538  1056  1137  1
 1539  1056  1059  1
 1540  1057  1062  1
 1541  1057  1058  1
 1542  1058  1059  1
 1543  1059  1060  1
 1544  1060  1141  1
 1545  1060  1063  1
 1546  1061  1066  1
 1547  1061  1062  1
 1548  1062  1063  1
 1549  1063  1064  1
 1550  1064  1145  1
 1551  1064  1067  1
 1552  1065  1070  1
 1553  1065  1066  1
 1554  1066  1067  1
 1555  1067  1068  1
 1556  1068  1149  1
 1557  1068  1071  1
 1558  1069  1070  1
 1559  1069  1074  1
 1560  1070  1071  1
 1561  1071  1072  1
 1562  1072  1153  1
 1563  1072  1075  1
 1564  1073  1074  1
 1565  1073  1078  1
 1566  1074  1075  1
 1567  1075  1076  1
 1568  1076  1157  1
 1569  1076  1079  1
 1570  1077  1082  1
 1571  1077  1078  1
 1572  1078  1079  1
 1573  1079  1080  1
 1574  1080  1083  1
 1575  1080  1161  1
 1576  1081  1082  1
 1577  1081  1086  1
 1578  1082  1083  1
 1579  1083  1084  1
 1580  1084  1087  1
 1581  1084  1165  1
 1582  1085  1086  1
 1583  1085  1090  1
 1584  1086  1087  1
 1585  1087  1088  1
 1586  1088  1169  1
 1587  1088  1091  1
 1588  1089  1090  1
 1589  1090  1091  1
 1590  1091  1092  1
 1591  1092  1173  1
 1592  1093  1094  1
 1593  1093  1098  1
 1594  1094  1095  1
 1595  1095  1096  1
 1596  1096  1177  1
 1597  1096  1099  1
 1598  1097  1098  1
 1599  1097  1102  1
 1600  1098  1099  1
 1601  1099  1100  1
 1602  1100  1181  1
 1603  1100  1103  1
 1604  1101  1106  1
 1605  1101  1102  1
 1606  1102  1103  1
 1607  1103  1104  1
 1608  1104  1107  1
 1609  1104  1185  1
 1610  1105  1106  1
 1611  1105  1110  1
 1612  1106  1107  1
 1613  1107  1108  1
 1614  1108  1111  1
 1615  1108  1189  1
 1616  1109  1110  1
 1617  1109  1114  1
 1618  1110  1111  1
 1619  1111  1112  1
 1620  1112  1193  1
 1621  1112  1115  1
 1622  1113  1114  1
 1623  1113  1118  1
 1624  1114  1115  1
 1625  1115  1116  1
 1626  1116  1197  1
 1627  1116  1119  1
 1628  1117  1118  1
 1629  1117  1122  1
 1630  1118  1119  1
 1631  1119  1120  1
 1632  1120  1201  1
 1633  1120  1123  1
 1634  1121  1122  1
 1635  1121  1126  1
 1636  1122  1123  1
 1637  1123  1124  1
 1638  1124  1127  1
 1639  1124  1205  1
 1640  1125  1126  1
 1641  1125  1130  1
 1642  1126  1127  1
 1643  1127  1128  1
 1644  1128  1131  1
 1645  1128  1209  1
 1646  1129  1130  1
 1647  1129  1134  1
 1648  1130  1131  1
 1649  1131  1132  1
 1650  1132  1213  1
 1651  1132  1135  1
 1652  1133  1134  1
 1653  1133  1138  1
 1654  1134  1135  1
 1655  1135  1136  1
 1656  1136  1217  1
 1657  1136  1139  1
 1658  1137  1138  1
 1659  1137  1142  1
 1660  1138  1139  1
 1661  1139  1140  1
 1662  1140  1221  1
 1663  1140  1143  1
 1664  1141  1146  1
 1665  1141  1142  1
 1666  1142  1143  1
 1667  1143  1144  1
 1668  1144  1225  1
 1669  1144  1147  1
 1670  1145  1150  1
 1671  1145  1146  1
 1672  1146  1147  1
 1673  1147  1148  1
 1674  1148  1229  1
 1675  1148  1151  1
 1676  1149  1154  1
 1677  1149  1150  1
 1678  1150  1151  1
 1679  1151  1152  1
 1680  1152  1233  1
 1681  1152  1155  1
 1682  1153  1154  1
 1683  1153  1158  1
 1684  1154  1155  1
 1685  1155  1156  1
 1686  1156  1237  1
 1687  1156  1159  1
 1688  1157  1158  1
 1689  1157  1162  1
 1690  1158  1159  1
 1691  1159  1160  1
 1692  1160  1241  1
 1693  1160  1163  1
 1694  1161  1162  1
 1695  1161  1166  1
 1696  1162  1163  1
 1697  1163  1164  1
 1698  1164  1167  1
 1699  1164  1245  1
 1700  1165  1166  1
 1701  1165  1170  1
 1702  1166  1167  1
 1703  1167  1168  1
 1704  1168  1171  1
 1705  1168  1249  1
 1706  1169  1170  1
 1707  1169  1174  1
 1708  1170  1171  1
 1709  1171  1172  1
 1710  1172  1253  1
 1711  1172  1175  1
 1712  1173  1174  1
 1713  1174  1175  1
 1714  1175  1176  1
 1715  1176  1257  1
 1716  1177  1178  1
 1717  1177  1182  1
 1718  1178  1179  1
 1719  1179  1180  1
 1720  1180  1261  1
 1721  1180  1183  1
 1722  1181  1182  1
 1723  1181  1186  1
 1724  1182  1183  1
 1725  1183  1184  1
 1726  1184  1265  1
 1727  1184  1187  1
 1728  1185  1186  1
 1729  1185  1190  1
 1730  1186  1187  1
 1731  1187  1188  1
 1732  1188  1191  1
 1733  1188  1269  1
 1734  1189  1190  1
 1735  1189  1194  1
 1736  1190  1191  1
 1737  1191  1192  1
 1738  1192  1195  1
 1739  1192  1273  1
 1740  1193  1194  1
 1741  1193  1198  1
 1742  1194  1195  1
 1743  1195  1196  1
 1744  1196  1277  1
 1745  1196  1199  1
 1746  1197  1198  1
 1747  1197  1202  1
 1748  1198  1199  1
 1749  1199  1200  1
 1750  1200  1281  1
 1751  1200  1203  1
 1752  1201  1202  1
 1753  1201  1206  1
 1754  1202  1203  1
 1755  1203  1204  1
 1756  1204  1285  1
 1757  1204  1207  1
 1758  1205  1206  1
 1759  1205  1210  1
 1760  1206  1207  1
 1761  1207  1208  1
 1762  1208  1289  1
 1763  1208  1211  1
 1764  1209  1214  1
 1765  1209  1210  1
 1766  1210  1211  1
 1767  1211  1212  1
 1768  1212  1293  1
 1769  1212  1215  1
 1770  1213  1218  1
 1771  1213  1214  1
 1772  1214  1215  1
 1773  1215  1216  1
 1774  1216  1297  1
 1775  1216  1219  1
 1776  1217  1218  1
 1777  1217  1222  1
 1778  1218  1219  1
 1779  1219  1220  1
 1780  1220  1301  1
 1781  1220  1223  1
 1782  1221  1222  1
 1783  1221  1226  1
 1784  1222  1223  1
 1785  1223  1224  1
 1786  1224  1305  1
 1787  1224  1227  1
 1788  1225  1230  1
 1789  1225  1226  1
 1790  1226  1227  1
 1791  1227  1228  1
 1792  1228  1309  1
 1793  1228  1231  1
 1794  1229  1234  1
 1795  1229  1230  1
 1796  1230  1231  1
 1797  1231  1232  1
 1798  1232  1235  1
 1799  1232  1313  1
 1800  1233  1238  1
 1801  1233  1234  1
 1802  1234  1235  1
 1803  1235  1236  1
 1804  1236  1317  1
 1805  1236  1239  1
 1806  1237  1238  1
 1807  1237  1242  1
 1808  1238  1239  1
 1809  1239  1240  1
 1810  1240  1321  1
 1811  1240  1243  1
 1812  1241  1242  1
 1813  1241  1246  1
 1814  1242  1243  1
 1815  1243  1244  1
 1816  1244  1325  1
 1817  1244  1247  1
 1818  1245  1246  1
 1819  1245  1250  1
 1820  1246  1247  1
 1821  1247  1248  1
 1822  1248  1251  1
 1823  1248  1329  1
 1824  1249  1250  1
 1825  1249  1254  1
 1826  1250  1251  1
 1827  1251  1252  1
 1828  1252  1255  1
 1829  1252  1333  1
 1830  1253  1254  1
 1831  1253  1258  1
 1832  1254  1255  1
 1833  1255  1256  1
 1834  1256  1337  1
 1835  1256  1259  1
 1836  1257  1258  1
 1837  1258  1259  1
 1838  1259  1260  1
 1839  1260  1341  1
 1840  1261  1262  1
 1841  1261  1266  1
 1842  1262  1263  1
 1843  1263  1264  1
 1844  1264  1345  1
 1845  1264  1267  1
 1846  1265  1266  1
 1847  1265  1270  1
 1848  1266  1267  1
 1849  1267  1268  1
 1850  1268  1349  1
 1851  1268  1271  1
 1852  1269  1270  1
 1853  1269  1274  1
 1854  1270  1271  1
 1855  1271  1272  1
 1856  1272  1275  1
 1857  1272  1353  1
 1858  1273  1274  1
 1859  1273  1278  1
 1860  1274  1275  1
 1861  1275  1276  1
 1862  1276  1279  1
 1863  1276  1357  1
 1864  1277  1278  1
 1865  1277  1282  1
 1866  1278  1279  1
 1867  1279  1280  1
 1868  1280  1361  1
 1869  1280  1283  1
 1870  1281  1282  1
 1871  1281  1286  1
 1872  1282  1283  1
 1873  1283  1284  1
 1874  1284  1365  1
 1875  1284  1287  1
 1876  1285  1286  1
 1877  1285  1290  1
 1878  1286  1287  1
 1879  1287  1288  1
 1880  1288  1369  1
 1881  1288  1291  1
 1882  1289  1294  1
 1883  1289  1290  1
 1884  1290  1291  1
 1885  1291  1292  1
 1886  1292  1373  1
 1887  1292  1295  1
 1888  1293  1298  1
 1889  1293  1294  1
 1890  1294  1295  1
 1891  1295  1296  1
 1892  1296  1377  1
 1893  1296  1299  1
 1894  1297  1302  1
 1895  1297  1298  1
 1896  1298  1299  1
 1897  1299  1300  1
 1898  1300  1381  1
 1899  1300  1303  1
 1900  1301  1302  1
 1901  1301  1306  1
 1902  1302  1303  1
 1903  1303  1304  1
 1904  1304  1385  1
 1905  1304  1307  1
 1906  1305  1306  1
 1907  1305  1310  1
 1908  1306  1307  1
 1909  1307  1308  1
 1910  1308  1389  1
 1911  1308  1311  1
 1912  1309  1314  1
 1913  1309  1310  1
 1914  1310  1311  1
 1915  1311  1312  1
 1916  1312  1315  1
 1917  1312  1393  1
 1918  1313  1314  1
 1919  1313  1318  1
 1920  1314  1315  1
 1921  1315  1316  1
 1922  1316  1319  1
 1923  1316  1397  1
 1924  1317  1318  1
 1925  1317  1322  1
 1926  1318  1319  1
 1927  1319  1320  1
 1928  1320  1401  1
 1929  1320  1323  1
 1930  1321  1322  1
 1931  1321  1326  1
 1932  1322  1323  1
 1933  1323  1324  1
 1934  1324  1405  1
 1935  1324  1327  1
 1936  1325  1326  1
 1937  1325  1330  1
 1938  1326  1327  1
 1939  1327  1328  1
 1940  1328  1409  1
 1941  1328  1331  1
 1942  1329  1330  1
 1943  1329  1334  1
 1944  1330  1331  1
 1945  1331  1332  1
 1946  1332  1335  1
 1947  1332  1413  1
 1948  1333  1334  1
 1949  1333  1338  1
 1950  1334  1335  1
 1951  1335  1336  1
 1952  1336  1339  1
 1953  1336  1417  1
 1954  1337  1338  1
 1955  1337  1342  1
 1956  1338  1339  1
 1957  1339  1340  1
 1958  1340  1421  1
 1959  1340  1343  1
 1960  1341  1342  1
 1961  1342  1343  1
 1962  1343  1344  1
 1963  1344  1425  1
 1964  1345  1346  1
 1965  1345  1350  1
 1966  1346  1347  1
 1967  1347  1348  1
 1968  1348  1351  1
 1969  1348  1429  1
 1970  1349  1350  1
 1971  1349  1354  1
 1972  1350  1351  1
 1973  1351  1352  1
 1974  1352  1355  1
 1975  1352  1433  1
 1976  1353  1358  1
 1977  1353  1354  1
 1978  1354  1355  1
 1979  1355  1356  1
 1980  1356  1359  1
 1981  1356  1437  1
 1982  1357  1362  1
 1983  1357  1358  1
 1984  1358  1359  1
 1985  1359  1360  1
 1986  1360  1363  1
 1987  1360  1441  1
 1988  1361  1362  1
 1989  1361  1366  1
 1990  1362  1363  1
 1991  1363  1364  1
 1992  1364  1367  1
 1993  1364  1445  1
 1994  1365  1366  1
 1995  1365  1370  1
 1996  1366  1367  1
 1997  1367  1368  1
 1998  1368  1371  1
 1999  1368  1449  1
 2000  1369  1370  1
 2001  1369  1374  1
 2002  1370  1371  1
 2003  1371  1372  1
 2004  1372  1375  1
 2005  1372  1453  1
 2006  1373  1378  1
 2007  1373  1374  1
 2008  1374  1375  1
 2009  1375  1376  1
 2010  1376  1379  1
 2011  1376  1457  1
 2012  1377  1382  1
 2013  1377  1378  1
 2014  1378  1379  1
 2015  1379  1380  1
 2016  1380  1383  1
 2017  1380  1461  1
 2018  1381  1386  1
 2019  1381  1382  1
 2020  1382  1383  1
 2021  1383  1384  1
 2022  1384  1387  1
 2023  1384  1465  1
 2024  1385  1386  1
 2025  1385  1390  1
 2026  1386  1387  1
 2027  1387  1388  1
 2028  1388  1391  1
 2029  1388  1469  1
 2030  1389  1390  1
 2031  1389  1394  1
 2032  1390  1391  1
 2033  1391  1392  1
 2034  1392  1395  1
 2035  1392  1473  1
 2036  1393  1398  1
 2037  1393  1394  1
 2038  1394  1395  1
 2039  1395  1396  1
 2040  1396  1399  1
 2041  1396  1477  1
 2042  1397  1402  1
 2043  1397  1398  1
 2044  1398  1399  1
 2045  1399  1400  1
 2046  1400  1403  1
 2047  1400  1481  1
 2048  1401  1406  1
 2049  1401  1402  1
 2050  1402  1403  1
 2051  1403  1404  1
 2052  1404  1407  1
 2053  1404  1485  1
 2054  1405  1406  1
 2055  1405  1410  1
 2056  1406  1407  1
 2057  1407  1408  1
 2058  1408  1411  1
 2059  1408  1489  1
 2060  1409  1410  1
 2061  1409  1414  1
 2062  1410  1411  1
 2063  1411  1412  1
 2064  1412  1415  1
 2065  1412  1493  1
 2066  1413  1414  1
 2067  1413  1418  1
 2068  1414  1415  1
 2069  1415  1416  1
 2070  1416  1419  1
 2071  1416  1497  1
 2072  1417  1422  1
 2073  1417  1418  1
 2074  1418  1419  1
 2075  1419  1420  1
 2076  1420  1423  1
 2077  1420  1501  1
 2078  1421  1426  1
 2079  1421  1422  1
 2080  1422  1423  1
 2081  1423  1424  1
 2082  1424  1427  1
 2083  1424  1505  1
 2084  1425  1426  1
 2085  1426  1427  1
 2086  1427  1428  1
 2087  1428  1509  1
 2088  1429  1430  1
 2089  1429  1434  1
 2090  1430  1431  1
 2091  1431  1432  1
 2092  1432  1435  1
 2093  1432  1513  1
 2094  1433  1434  1
 2095  1433  1438  1
 2096  1434  1435  1
 2097  1435  1436  1
 2098  1436  1439  1
 2099  1436  1517  1
 2100  1437  1438  1
 2101  1437  1442  1
 2102  1438  1439  1
 2103  1439  1440  1
 2104  1440  1443  1
 2105  1440  1521  1
 2106  1441  1446  1
 2107  1441  1442  1
 2108  1442  1443  1
 2109  1443  1444  1
 2110  1444  1447  1
 2111  1444  1525  1
 2112  1445  1450  1
 2113  1445  1446  1
 2114  1446  1447  1
 2115  1447  1448  1
 2116  1448  1451  1
 2117  1448  1529  1
 2118  1449  1450  1
 2119  1449  1454  1
 2120  1450  1451  1
 2121  1451  1452  1
 2122  1452  1455  1
 2123  1452  1533  1
 2124  1453  1454  1
 2125  1453  1458  1
 2126  1454  1455  1
 2127  1455  1456  1
 2128  1456  1459  1
 2129  1456  1537  1
 2130  1457  1462  1
 2131  1457  1458  1
 2132  1458  1459  1
 2133  1459  1460  1
 2134  1460  1463  1
 2135  1460  1541  1
 2136  1461  1466  1
 2137  1461  1462  1
 2138  1462  1463  1
 2139  1463  1464  1
 2140  1464  1467  1
 2141  1464  1545  1
 2142  1465  1470  1
 2143  1465  1466  1
 2144  1466  1467  1
 2145  1467  1468  1
 2146  1468  1471  1
 2147  1468  1549  1
 2148  1469  1470  1
 2149  1469  1474  1
 2150  1470  1471  1
 2151  1471  1472  1
 2152  1472  1475  1
 2153  1472  1553  1
 2154  1473  1474  1
 2155  1473  1478  1
 2156  1474  1475  1
 2157  1475  1476  1
 2158  1476  1479  1
 2159  1476  1557  1
 2160  1477  1482  1
 2161  1477  1478  1
 2162  1478  1479  1
 2163  1479  1480  1
 2164  1480  1483  1
 2165  1480  1561  1
 2166  1481  1486  1
 2167  1481  1482  1
 2168  1482  1483  1
 2169  1483  1484  1
 2170  1484  1487  1
 2171  1484  1565  1
 2172  1485  1490  1
 2173  1485  1486  1
 2174  1486  1487  1
 2175  1487  1488  1
 2176  1488  1491  1
 2177  1488  1569  1
 2178  1489  1490  1
 2179  1489  1494  1
 2180  1490  1491  1
 2181  1491  1492  1
 2182  1492  1495  1
 2183  1492  1573  1
 2184  1493  1494  1
 2185  1493  1498  1
 2186  1494  1495  1
 2187  1495  1496  1
 2188  1496  1499  1
 2189  1496  1577  1
 2190  1497  1502  1
 2191  1497  1498  1
 2192  1498  1499  1
 2193  1499  1500  1
 2194  1500  1503  1
 2195  1500  1581  1
 2196  1501  1506  1
 2197  1501  1502  1
 2198  1502  1503  1
 2199  1503  1504  1
 2200  1504  1507  1
 2201  1504  1585  1
 2202  1505  1510  1
 2203  1505  1506  1
 2204  1506  1507  1
 2205  1507  1508  1
 2206  1508  1511  1
 2207  1508  1589  1
 2208  1509  1510  1
 2209  1510  1511  1
 2210  1511  1512  1
 2211  1512  1593  1
 2212  1513  1514  1
 2213  1513  1518  1
 2214  1514  1515  1
 2215  1515  1516  1
 2216  1516  1519  1
 2217  1516  1597  1
 2218  1517  1518  1
 2219  1517  1522  1
 2220  1518  1519  1
 2221  1519  1520  1
 2222  1520  1523  1
 2223  1520  1601  1
 2224  1521  1526  1
 2225  1521  1522  1
 2226  1522  1523  1
 2227  1523  1524  1
 2228  1524  1527  1
 2229  1524  1605  1
 2230  1525  1530  1
 2231  1525  1526  1
 2232  1526  1527  1
 2233  1527  1528  1
 2234  1528  1531  1
 2235  1528  1609  1
 2236  1529  1534  1
 2237  1529  1530  1
 2238  1530  1531  1
 2239  1531  1532  1
 2240  1532  1535  1
 2241  1532  1613  1
 2242  1533  1534  1
 2243  1533  1538  1
 2244  1534  1535  1
 2245  1535  1536  1
 2246  1536  1539  1
 2247  1536  1617  1
 2248  1537  1538  1
 2249  1537  1542  1
 2250  1538  1539  1
 2251  1539  1540  1
 2252  1540  1543  1
 2253  1540  1621  1
 2254  1541  1546  1
 2255  1541  1542  1
 2256  1542  1543  1
 2257  1543  1544  1
 2258  1544  1547  1
 2259  1544  1625  1
 2260  1545  1550  1
 2261  1545  1546  1
 2262  1546  1547  1
 2263  1547  1548  1
 2264  1548  1551  1
 2265  1548  1629  1
 2266  1549  1554  1
 2267  1549  1550  1
 2268  1550  1551  1
 2269  1551  1552  1
 2270  1552  1555  1
 2271  1552  1633  1
 2272  1553  1554  1
 2273  1553  1558  1
 2274  1554  1555  1
 2275  1555  1556  1
 2276  1556  1559  1
 2277  1556  1637  1
 2278  1557  1558  1
 2279  1557  1562  1
 2280  1558  1559  1
 2281  1559  1560  1
 2282  1560  1563  1
 2283  1560  1641  1
 2284  1561  1566  1
 2285  1561  1562  1
 2286  1562  1563  1
 2287  1563  1564  1
 2288  1564  1567  1
 2289  1564  1645  1
 2290  1565  1570  1
 2291  1565  1566  1
 2292  1566  1567  1
 2293  1567  1568  1
 2294  1568  1571  1
 2295  1568  1649  1
 2296  1569  1570  1
 2297  1569  1574  1
 2298  1570  1571  1
 2299  1571  1572  1
 2300  1572  1575  1
 2301  1572  1653  1
 2302  1573  1574  1
 2303  1573  1578  1
 2304  1574  1575  1
 2305  1575  1576  1
 2306  1576  1579  1
 2307  1576  1657  1
 2308  1577  1578  1
 2309  1577  1582  1
 2310  1578  1579  1
 2311  1579  1580  1
 2312  1580  1583  1
 2313  1580  1661  1
 2314  1581  1586  1
 2315  1581  1582  1
 2316  1582  1583  1
 2317  1583  1584  1
 2318  1584  1587  1
 2319  1584  1665  1
 2320  1585  1590  1
 2321  1585  1586  1
 2322  1586  1587  1
 2323  1587  1588  1
 2324  1588  1591  1
 2325  1588  1669  1
 2326  1589  1594  1
 2327  1589  1590  1
 2328  1590  1591  1
 2329  1591  1592  1
 2330  1592  1595  1
 2331  1592  1673  1
 2332  1593  1594  1
 2333  1594  1595  1
 2334  1595  1596  1
 2335  1596  1677  1
 2336  1597  1598  1
 2337  1597  1602  1
 2338  1598  1599  1
 2339  1599  1600  1
 2340  1600  1603  1
 2341  1600  1681  1
 2342  1601  1602  1
 2343  1601  1606  1
 2344  1602  1603  1
 2345  1603  1604  1
 2346  1604  1607  1
 2347  1604  1685  1
 2348  1605  1610  1
 2349  1605  1606  1
 2350  1606  1607  1
 2351  1607  1608  1
 2352  1608  1611  1
 2353  1608  1689  1
 2354  1609  1614  1
 2355  1609  1610  1
 2356  1610  1611  1
 2357  1611  1612  1
 2358  1612  1615  1
 2359  1612  1693  1
 2360  1613  1618  1
 2361  1613  1614  1
 2362  1614  1615  1
 2363  1615  1616  1
 2364  1616  1619  1
 2365  1616  1697  1
 2366  1617  1618  1
 2367  1617  1622  1
 2368  1618  1619  1
 2369  1619  1620  1
 2370  1620  1623  1
 2371  1620  1701  1
 2372  1621  1622  1
 2373  1621  1626  1
 2374  1622  1623  1
 2375  1623  1624  1
 2376  1624  1627  1
 2377  1624  1705  1
 2378  1625  1630  1
 2379  1625  1626  1
 2380  1626  1627  1
 2381  1627  1628  1
 2382  1628  1631  1
 2383  1628  1709  1
 2384  1629  1634  1
 2385  1629  1630  1
 2386  1630  1631  1
 2387  1631  1632  1
 2388  1632  1635  1
 2389  1632  1713  1
 2390  1633  1638  1
 2391  1633  1634  1
 2392  1634  1635  1
 2393  1635  1636  1
 2394  1636  1639  1
 2395  1636  1717  1
 2396  1637  1638  1
 2397  1637  1642  1
 2398  1638  1639  1
 2399  1639  1640  1
 2400  1640  1643  1
 2401  1640  1721  1
 2402  1641  1642  1
 2403  1641  1646  1
 2404  1642  1643  1
 2405  1643  1644  1
 2406  1644  1647  1
 2407  1644  1725  1
 2408  1645  1646  1
 2409  1645  1650  1
 2410  1646  1647  1
 2411  1647  1648  1
 2412  1648  1651  1
 2413  1648  1729  1
 2414  1649  1654  1
 2415  1649  1650  1
 2416  1650  1651  1
 2417  1651  1652  1
 2418  1652  1655  1
 2419  1652  1733  1
 2420  1653  1658  1
 2421  1653  1654  1
 2422  1654  1655  1
 2423  1655  1656  1
 2424  1656  1659  1
 2425  1656  1737  1
 2426  1657  1658  1
 2427  1657  1662  1
 2428  1658  1659  1
 2429  1659  1660  1
 2430  1660  1663  1
 2431  1660  1741  1
 2432  1661  1662  1
 2433  1661  1666  1
 2434  1662  1663  1
 2435  1663  1664  1
 2436  1664  1667  1
 2437  1664  1745  1
 2438  1665  1670  1
 2439  1665  1666  1
 2440  1666  1667  1
 2441  1667  1668  1
 2442  1668  1671  1
 2443  1668  1749  1
 2444  1669  1674  1
 2445  1669  1670  1
 2446  1670  1671  1
 2447  1671  1672  1
 2448  1672  1675  1
 2449  1672  1753  1
 2450  1673  1678  1
 2451  1673  1674  1
 2452  1674  1675  1
 2453  1675  1676  1
 2454  1676  1679  1
 2455  1676  1757  1
 2456  1677  1678  1
 2457  1678  1679  1
 2458  1679  1680  1
 2459  1680  1761  1
 2460  1681  1682  1
 2461  1681  1686  1
 2462  1682  1683  1
 2463  1683  1684  1
 2464  1684  1687  1
 2465  1684  1765  1
 2466  1685  1686  1
 2467  1685  1690  1
 2468  1686  1687  1
 2469  1687  1688  1
 2470  1688  1691  1
 2471  1688  1769  1
 2472  1689  1694  1
 2473  1689  1690  1
 2474  1690  1691  1
 2475  1691  1692  1
 2476  1692  1695  1
 2477  1692  1773  1
 2478  1693  1698  1
 2479  1693  1694  1
 2480  1694  1695  1
 2481  1695  1696  1
 2482  1696  1699  1
 2483  1696  1777  1
 2484  1697  1702  1
 2485  1697  1698  1
 2486  1698  1699  1
 2487  1699  1700  1
 2488  1700  1703  1
 2489  1700  1781  1
 2490  1701  1702  1
 2491  1701  1706  1
 2492  1702  1703  1
 2493  1703  1704  1
 2494  1704  1707  1
 2495  1704  1785  1
 2496  1705  1706  1
 2497  1705  1710  1
 2498  1706  1707  1
 2499  1707  1708  1
 2500  1708  1711  1
 2501  1708  1789  1
 2502  1709  1714  1
 2503  1709  1710  1
 2504  1710  1711  1
 2505  1711  1712  1
 2506  1712  1715  1
 2507  1712  1793  1
 2508  1713  1718  1
 2509  1713  1714  1
 2510  1714  1715  1
 2511  1715  1716  1
 2512  1716  1719  1
 2513  1716  1797  1
 2514  1717  1722  1
 2515  1717  1718  1
 2516  1718  1719  1
 2517  1719  1720  1
 2518  1720  1723  1
 2519  1720  1801  1
 2520  1721  1722  1
 2521  1721  1726  1
 2522  1722  1723  1
 2523  1723  1724  1
 2524  1724  1727  1
 2525  1724  1805  1
 2526  1725  1726  1
 2527  1725  1730  1
 2528  1726  1727  1
 2529  1727  1728  1
 2530  1728  1731  1
 2531  1728  1809  1
 2532  1729  1734  1
 2533  1729  1730  1
 2534  1730  1731  1
 2535  1731  1732  1
 2536  1732  1735  1
 2537  1732  1813  1
 2538  1733  1738  1
 2539  1733  1734  1
 2540  1734  1735  1
 2541  1735  1736  1
 2542  1736  1739  1
 2543  1736  1817  1
 2544  1737  1742  1
 2545  1737  1738  1
 2546  1738  1739  1
 2547  1739  1740  1
 2548  1740  1743  1
 2549  1740  1821  1
 2550  1741  1742  1
 2551  1741  1746  1
 2552  1742  1743  1
 2553  1743  1744  1
 2554  1744  1747  1
 2555  1744  1825  1
 2556  1745  1746  1
 2557  1745  1750  1
 2558  1746  1747  1
 2559  1747  1748  1
 2560  1748  1751  1
 2561  1748  1829  1
 2562  1749  1754  1
 2563  1749  1750  1
 2564  1750  1751  1
 2565  1751  1752  1
 2566  1752  1755  1
 2567  1752  1833  1
 2568  1753  1758  1
 2569  1753  1754  1
 2570  1754  1755  1
 2571  1755  1756  1
 2572  1756  1759  1
 2573  1756  1837  1
 2574  1757  1762  1
 2575  1757  1758  1
 2576  1758  1759  1
 2577  1759  1760  1
 2578  1760  1763  1
 2579  1760  1841  1
 2580  1761  1762  1
 2581  1762  1763  1
 2582  1763  1764  1
 2583  1764  1845  1
 2584  1765  1766  1
 2585  1765  1770  1
 2586  1766  1767  1
 2587  1767  1768  1
 2588  1768  1771  1
 2589  1768  1849  1
 2590  1769  1770  1
 2591  1769  1774  1
 2592  1770  1771  1
 2593  1771  1772  1
 2594  1772  1775  1
 2595  1772  1853  1
 2596  1773  1778  1
 2597  1773  1774  1
 2598  1774  1775  1
 2599  1775  1776  1
 2600  1776  1779  1
 2601  1776  1857  1
 2602  1777  1782  1
 2603  1777  1778  1
 2604  1778  1779  1
 2605  1779  1780  1
 2606  1780  1783  1
 2607  1780  1861  1
 2608  1781  1786  1
 2609  1781  1782  1
 2610  1782  1783  1
 2611  1783  1784  1
 2612  1784  1787  1
 2613  1784  1865  1
 2614  1785  1786  1
 2615  1785  1790  1
 2616  1786  1787  1
 2617  1787  1788  1
 2618  1788  1791  1
 2619  1788  1869  1
 2620  1789  1790  1
 2621  1789  1794  1
 2622  1790  1791  1
 2623  1791  1792  1
 2624  1792  1795  1
 2625  1792  1873  1
 2626  1793  1798  1
 2627  1793  1794  1
 2628  1794  1795  1
 2629  1795  1796  1
 2630  1796  1799  1
 2631  1796  1877  1
 2632  1797  1802  1
 2633  1797  1798  1
 2634  1798  1799  1
 2635  1799  1800  1
 2636  1800  1803  1
 2637  1800  1881  1
 2638  1801  1802  1
 2639  1801  1806  1
 2640  1802  1803  1
 2641  1803  1804  1
 2642  1804  1807  1
 2643  1804  1885  1
 2644  1805  1806  1
 2645  1805  1810  1
 2646  1806  1807  1
 2647  1807  1808  1
 2648  1808  1811  1
 2649  1808  1889  1
 2650  1809  1810  1
 2651  1809  1814  1
 2652  1810  1811  1
 2653  1811  1812  1
 2654  1812  1815  1
 2655  1812  1893  1
 2656  1813  1818  1
 2657  1813  1814  1
 2658  1814  1815  1
 2659  1815  1816  1
 2660  1816  1819  1
 2661  1816  1897  1
 2662  1817  1822  1
 2663  1817  1818  1
 2664  1818  1819  1
 2665  1819  1820  1
 2666  1820  1823  1
 2667  1820  1901  1
 2668  1821  1826  1
 2669  1821  1822  1
 2670  1822  1823  1
 2671  1823  1824  1
 2672  1824  1827  1
 2673  1824  1905  1
 2674  1825  1826  1
 2675  1825  1830  1
 2676  1826  1827  1
 2677  1827  1828  1
 2678  1828  1831  1
 2679  1828  1909  1
 2680  1829  1830  1
 2681  1829  1834  1
 2682  1830  1831  1
 2683  1831  1832  1
 2684  1832  1835  1
 2685  1832  1913  1
 2686  1833  1838  1
 2687  1833  1834  1
 2688  1834  1835  1
 2689  1835  1836  1
 2690  1836  1839  1
 2691  1836  1917  1
 2692  1837  1842  1
 2693  1837  1838  1
 2694  1838  1839  1
 2695  1839  1840  1
 2696  1840  1843  1
 2697  1840  1921  1
 2698  1841  1846  1
 2699  1841  1842  1
 2700  1842  1843  1
 2701  1843  1844  1
 2702  1844  1847  1
 2703  1844  1925  1
 2704  1845  1846  1
 2705  1846  1847  1
 2706  1847  1848  1
 2707  1848  1929  1
 2708  1849  1850  1
 2709  1849  1854  1
 2710  1850  1851  1
 2711  1851  1852  1
 2712  1852  1855  1
 2713  1852  1933  1
 2714  1853  1854  1
 2715  1853  1858  1
 2716  1854  1855  1
 2717  1855  1856  1
 2718  1856  1859  1
 2719  1856  1937  1
 2720  1857  1862  1
 2721  1857  1858  1
 2722  1858  1859  1
 2723  1859  1860  1
 2724  1860  1863  1
 2725  1860  1941  1
 2726  1861  1866  1
 2727  1861  1862  1
 2728  1862  1863  1
 2729  1863  1864  1
 2730  1864  1867  1
 2731  1864  1945  1
 2732  1865  1870  1
 2733  1865  1866  1
 2734  1866  1867  1
 2735  1867  1868  1
 2736  1868  1871  1
 2737  1868  1949  1
 2738  1869  1870  1
 2739  1869  1874  1
 2740  1870  1871  1
 2741  1871  1872  1
 2742  1872  1875  1
 2743  1872  1953  1
 2744  1873  1874  1
 2745  1873  1878  1
 2746  1874  1875  1
 2747  1875  1876  1
 2748  1876  1879  1
 2749  1876  1957  1
 2750  1877  1878  1
 2751  1877  1882  1
 2752  1878  1879  1
 2753  1879  1880  1
 2754  1880  1883  1
 2755  1880  1961  1
 2756  1881  1886  1
 2757  1881  1882  1
 2758  1882  1883  1
 2759  1883  1884  1
 2760  1884  1887  1
 2761  1884  1965  1
 2762  1885  1890  1
 2763  1885  1886  1
 2764  1886  1887  1
 2765  1887  1888  1
 2766  1888  1891  1
 2767  1888  1969  1
 2768  1889  1890  1
 2769  1889  1894  1
 2770  1890  1891  1
 2771  1891  1892  1
 2772  1892  1895  1
 2773  1892  1973  1
 2774  1893  1894  1
 2775  1893  1898  1
 2776  1894  1895  1
 2777  1895  1896  1
 2778  1896  1899  1
 2779  1896  1977  1
 2780  1897  1902  1
 2781  1897  1898  1
 2782  1898  1899  1
 2783  1899  1900  1
 2784  1900  1903  1
 2785  1900  1981  1
 2786  1901  1906  1
 2787  1901  1902  1
 2788  1902  1903  1
 2789  1903  1904  1
 2790  1904  1907  1
 2791  1904  1985  1
 2792  1905  1910  1
 2793  1905  1906  1
 2794  1906  1907  1
 2795  1907  1908  1
 2796  1908  1911  1
 2797  1908  1989  1
 2798  1909  1910  1
 2799  1909  1914  1
 2800  1910  1911  1
 2801  1911  1912  1
 2802  1912  1915  1
 2803  1912  1993  1
 2804  1913  1914  1
 2805  1913  1918  1
 2806  1914  1915  1
 2807  1915  1916  1
 2808  1916  1919  1
 2809  1916  1997  1
 2810  1917  1922  1
 2811  1917  1918  1
 2812  1918  1919  1
 2813  1919  1920  1
 2814  1920  1923  1
 2815  1920  2001  1
 2816  1921  1926  1
 2817  1921  1922  1
 2818  1922  1923  1
 2819  1923  1924  1
 2820  1924  1927  1
 2821  1924  2005  1
 2822  1925  1930  1
 2823  1925  1926  1
 2824  1926  1927  1
 2825  1927  1928  1
 2826  1928  1931  1
 2827  1928  2009  1
 2828  1929  1930  1
 2829  1930  1931  1
 2830  1931  1932  1
 2831  1932  2013  1
 2832  1933  1934  1
 2833  1933  1938  1
 2834  1934  1935  1
 2835  1935  1936  1
 2836  1936  1939  1
 2837  1937  1938  1
 2838  1937  1942  1
 2839  1938  1939  1
 2840  1939  1940  1
 2841  1940  1943  1
 2842  1941  1946  1
 2843  1941  1942  1
 2844  1942  1943  1
 2845  1943  1944  1
 2846  1944  1947  1
 2847  1945  1950  1
 2848  1945  1946  1
 2849  1946  1947  1
 2850  1947  1948  1
 2851  1948  1951  1
 2852  1949  1954  1
 2853  1949  1950  1
 2854  1950  1951  1
 2855  1951  1952  1
 2856  1952  1955  1
 2857  1953  1954  1
 2858  1953  1958  1
 2859  1954  1955  1
 2860  1955  1956  1
 2861  1956  1959  1
 2862  1957  1958  1
 2863  1957  1962  1
 2864  1958  1959  1
 2865  1959  1960  1
 2866  1960  1963  1
 2867  1961  1966  1
 2868  1961  1962  1
 2869  1962  1963  1
 2870  1963  1964  1
 2871  1964  1967  1
 2872  1965  1970  1
 2873  1965  1966  1
 2874  1966  1967  1
 2875  1967  1968  1
 2876  1968  1971  1
 2877  1969  1974  1
 2878  1969  1970  1
 2879  1970  1971  1
 2880  1971  1972  1
 2881  1972  1975  1
 2882  1973  1974  1
 2883  1973  1978  1
 2884  1974  1975  1
 2885  1975  1976  1
 2886  1976  1979  1
 2887  1977  1978  1
 2888  1977  1982  1
 2889  1978  1979  1
 2890  1979  1980  1
 2891  1980  1983  1
 2892  1981  1986  1
 2893  1981  1982  1
 2894  1982  1983  1
 2895  1983  1984  1
 2896  1984  1987  1
 2897  1985  1990  1
 2898  1985  1986  1
 2899  1986  1987  1
 2900  1987  1988  1
 2901  1988  1991  1
 2902  1989  1994  1
 2903  1989  1990  1
 2904  1990  1991  1
 2905  1991  1992  1
 2906  1992  1995  1
 2907  1993  1994  1
 2908  1993  1998  1
 2909  1994  1995  1
 2910  1995  1996  1
 2911  1996  1999  1
 2912  1997  1998  1
 2913  1997  2002  1
 2914  1998  1999  1
 2915  1999  2000  1
 2916  2000  2003  1
 2917  2001  2006  1
 2918  2001  2002  1
 2919  2002  2003  1
 2920  2003  2004  1
 2921  2004  2007  1
 2922  2005  2010  1
 2923  2005  2006  1
 2924  2006  2007  1
 2925  2007  2008  1
 2926  2008  2011  1
 2927  2009  2010  1
 2928  2009  2014  1
 2929  2010  2011  1
 2930  2011  2012  1
 2931  2012  2015  1
 2932  2013  2014  1
 2933  2014  2015  1
 2934  2015  2016  1

@<TRIPOS>SUBSTRUCTURE
1 ****        1 TEMP                        0 ****  **** 0 ROOT
